/usr/lib/code_saturne/cs_preprocess --post-error ensight --case preprocess 
/home/vance/Downloads/Capstone/MCCapstone13-14/CFDTut/BetzLimitTesting/MESH/empty_tunnel.med 

  .------------------------------.
  |                              |
  |   Code_Saturne Preprocessor  |
  |                              |
  `------------------------------'

  code_saturne version 2.1.0   (built Thu 26 Jan 2012 08:41:48 PM EST)

  CGNS 2.5.5 file format support
  MED 3.0.3 (HDF5 1.8.4) file format support
  Reading of compressed files ('.gz') with Zlib 1.2.3.4



Case configuration
------------------

  Date                : Tue 03 Dec 2013 07:49:04 PM EST
  System              : Linux 3.5.0-43-generic
  Machine             : studio-ub
  Processor           : Intel(R) Core(TM)2 Duo CPU     P8700  @ 2.53GHz
  Memory              : 8142684
  User                : vance (Vance Turnewitsch)
  Directory           : /home/vance/Downloads/Capstone/MCCapstone13-14/CFDTut/BetzLimitTesting/betzlimit_testing_basic/RESU/check_mesh

  Case name           : preprocess
  Mesh file           : /home/vance/Downloads/Capstone/MCCapstone13-14/CFDTut/BetzLimitTesting/MESH/empty_tunnel.med



Reading mesh from file in MED (EDF/CEA) format
----------------------
  Mesh file: /home/vance/Downloads/Capstone/MCCapstone13-14/CFDTut/BetzLimitTesting/MESH/empty_tunnel.med


  Mesh name: Mesh_1

  Number of vertices                          :    16925

Warning
=======
The MED mesh contains 176 elements of type seg2
which are ignored by the Preprocessor.

  Number of faces                             :     3780
                                   Family 6   :      315
                                   Family 7   :      315
                                   Family 8   :     3150
  Number of cells                             :    83116
                                   Family 0   :    83116

  Wall-clock time: 0.112538 s; CPU time: 0.032001 s


Done reading mesh
-----------------
  Theoretical mesh size:                 1.686 Mb
  Theoretical current memory:            2.404 Mb
  Theoretical peak memory:               4.125 Mb
  Total memory used:                    61.910 Mb

  Domain coordinate extents:

  [ 0.00000e+00, -9.99689e+00, -9.98757e+00]
  [ 5.00000e+01,  9.99689e+00,  1.00000e+01]
  Number of elements                    tria3 :      126
  Number of elements                    quad4 :     3654
  Number of elements                   tetra4 :    79462
  Number of elements                 pyramid5 :     3654



Defining families
-----------------


  Element orientation check.


End of conversion to descending connectivity
--------------------------------------------
  Theoretical mesh size:                 4.855 Mb
  Theoretical current memory:            6.208 Mb
  Theoretical peak memory:              12.848 Mb
  Total memory used:                    70.324 Mb


Main mesh properties
--------------------

  Number of cells:                                 83116
  Number of internal faces:                       166169
  Number of boundary faces:                         3780
  Number of vertices:                              16925


Definition of face and cell families
------------------------------------

  Family 1
         Group "inlet"
  Number of boundary faces :      315
  Family 2
         Group "oulet"
  Number of boundary faces :      315
  Family 3
         Group "wall"
  Number of boundary faces :     3150
  Family 3
         Default family
         (no group)
  Number of cells          :    83116
  Number of internal faces :   166169


Write output for Kernel
-----------------------

  Opening file: mesh_input

  Wrote: "start_block:dimensions"
  Wrote: "n_cells"                         ; Type: "u8"; Size: 1
  Wrote: "n_faces"                         ; Type: "u8"; Size: 1
  Wrote: "n_vertices"                      ; Type: "u8"; Size: 1
  Wrote: "face_vertices_size"              ; Type: "u8"; Size: 1
  Wrote: "n_group_classes"                 ; Type: "i4"; Size: 1
  Wrote: "n_group_class_props_max"         ; Type: "i4"; Size: 1
  Wrote: "n_groups"                        ; Type: "u8"; Size: 1
  Wrote: "group_name_index"                ; Type: "i4"; Size: 4
  Wrote: "group_name"                      ; Type: "c "; Size: 17
  Wrote: "group_class_properties"          ; Type: "i4"; Size: 4
  Wrote: "end_block:dimensions"
  Wrote: "start_block:data"
  Wrote: "face_cells"                      ; Type: "i4"; Size: 339898
  Wrote: "cell_group_class_id"             ; Type: "i4"; Size: 83116
  Wrote: "face_group_class_id"             ; Type: "i4"; Size: 169949
  Wrote: "face_vertices_index"             ; Type: "u8"; Size: 169950
  Wrote: "face_vertices"                   ; Type: "i4"; Size: 513501
  Wrote: "vertex_coords"                   ; Type: "r8"; Size: 50775
  Wrote: "end_block:data"
  Wrote: "EOF"

  Closing file: mesh_input


Time and memory summary
-----------------------

  User CPU time                       (sec)   :        0.30
  System CPU time                     (sec)   :        0.02
  Total time                          (sec)   :        0.40
  Total CPU time / Total time                 :        0.81

Memory use summary:

  Total memory used:                                  70.324 Mb
  Theoretical instrumented dynamic memory:            12.848 Mb


  .-----------------------.
  |                       |
  |  Preprocessor finish  |
  |                       |
  `-----------------------'


command: 
 /usr/lib/code_saturne/cs_solver --quality --log 0 --param cs_cmd

***************************************************************

                                  (R)
                      Code_Saturne

                      Version 2.1.0


  Copyright (C) 1998-2011 EDF S.A., France

  build Thu 26 Jan 2012 08:44:04 PM EST
  MPI version 2.1 (Open MPI 1.4.3)


  The Code_Saturne CFD tool  is free software;
  you can redistribute it and/or modify it under the terms
  of the GNU General Public License as published by the
  Free Software Foundation; either version 2 of the License,
  or (at your option) any later version.

  The Code_Saturne CFD tool is distributed in the hope that
  it will be useful, but WITHOUT ANY WARRANTY; without even
  the implied warranty of MERCHANTABILITY or FITNESS FOR A
  PARTICULAR PURPOSE.  See the GNU General Public License
  for more details.

***************************************************************


Local case configuration:

  Date:              Tue 03 Dec 2013 07:49:05 PM EST
  System:            Linux 3.5.0-43-generic
  Machine:           studio-ub
  Processor:         Intel(R) Core(TM)2 Duo CPU     P8700  @ 2.53GHz
  Memory:            7951 MB
  User:              vance (Vance Turnewitsch)
  Directory:         /home/vance/Downloads/Capstone/MCCapstone13-14/CFDTut/BetzLimitTesting/betzlimit_testing_basic/RESU/check_mesh

===============================================================

                   CALCULATION PREPARATION
                   =======================


 ===========================================================



 Reading metadata from file: "mesh_input"

 No error detected during the data verification
                              (interface, usini1 and others).


 Reading file:        mesh_input
 Finished reading:    mesh_input


Postprocessing output writers:
------------------------------

  -1: name: results
      directory: postprocessing
      format: EnSight Gold
      options: binary
      time dependency: fixed mesh
      output: at calculation end

 Extended neighborhood structures definition

 Extended connectivity creation (0.294 s)
 Number of cells:                                      83116

 ----------------------------------------------------------
 Number of cells + halo cells:                         83116


 ----------------------------------------------------------
 Number of interior faces:                             166169

 ----------------------------------------------------------
 Number of boundary faces:                             3780

 ----------------------------------------------------------

 Histogram of the number of interior faces per cell:

    minimum value =                  3
    maximum value =                  4

      1 : [          3 ;          4 ] =      83116

 ----------------------------------------------------------

 Renumbering mesh:

 Mesh coordinates:               minimum    and maximum
                       X :  0.0000000e+00  5.0000000e+01
                       Y : -9.9968918e+00  9.9968918e+00
                       Z : -9.9875692e+00  1.0000000e+01
 Mesh
     Number of cells:          83116
     Number of interior faces: 166169
     Number of boundary faces: 3780
     Number of vertices:       16925

 Groups:
    "inlet"
       boundary faces:          315
    "oulet"
       boundary faces:          315
    "wall"
       boundary faces:         3150

 --- Information on the volumes
       Minimum control volume      =  1.0555193e-02
       Maximum control volume      =  4.8189724e+00
       Total volume for the domain =  1.5681936e+04

 Computing geometric quantities (0.0805 s)

 Computing quality criteria

  Histogram of the interior faces warping:

    minimum value =         0.00000e+00
    maximum value =         1.42109e-14

      1 : [ 0.00000e+00 ; 1.42109e-15 [ =     165657
      2 : [ 1.42109e-15 ; 2.84217e-15 [ =          0
      3 : [ 2.84217e-15 ; 4.26326e-15 [ =          0
      4 : [ 4.26326e-15 ; 5.68434e-15 [ =          0
      5 : [ 5.68434e-15 ; 7.10543e-15 [ =          0
      6 : [ 7.10543e-15 ; 8.52651e-15 [ =          0
      7 : [ 8.52651e-15 ; 9.94760e-15 [ =          0
      8 : [ 9.94760e-15 ; 1.13687e-14 [ =          0
      9 : [ 1.13687e-14 ; 1.27898e-14 [ =          0
     10 : [ 1.27898e-14 ; 1.42109e-14 ] =        512

  Histogram of the boundary faces warping:

    minimum value =         0.00000e+00
    maximum value =         1.13687e-13

      1 : [ 0.00000e+00 ; 1.13687e-14 [ =       2273
      2 : [ 1.13687e-14 ; 2.27374e-14 [ =        528
      3 : [ 2.27374e-14 ; 3.41061e-14 [ =        516
      4 : [ 3.41061e-14 ; 4.54747e-14 [ =        250
      5 : [ 4.54747e-14 ; 5.68434e-14 [ =          0
      6 : [ 5.68434e-14 ; 6.82121e-14 [ =        132
      7 : [ 6.82121e-14 ; 7.95808e-14 [ =         73
      8 : [ 7.95808e-14 ; 9.09495e-14 [ =          2
      9 : [ 9.09495e-14 ; 1.02318e-13 [ =          3
     10 : [ 1.02318e-13 ; 1.13687e-13 ] =          3

  Histogram of the interior faces weighting coefficient:

    minimum value =         5.00001e-01
    maximum value =         9.47880e-01

      1 : [ 5.00001e-01 ; 5.44789e-01 [ =      49821
      2 : [ 5.44789e-01 ; 5.89576e-01 [ =      31468
      3 : [ 5.89576e-01 ; 6.34364e-01 [ =      23364
      4 : [ 6.34364e-01 ; 6.79152e-01 [ =      19212
      5 : [ 6.79152e-01 ; 7.23940e-01 [ =      18212
      6 : [ 7.23940e-01 ; 7.68728e-01 [ =      10476
      7 : [ 7.68728e-01 ; 8.13516e-01 [ =      10582
      8 : [ 8.13516e-01 ; 8.58304e-01 [ =       2763
      9 : [ 8.58304e-01 ; 9.03092e-01 [ =        237
     10 : [ 9.03092e-01 ; 9.47880e-01 ] =         34

  Histogram of the interior faces off-centering coefficient:

    minimum value =         1.77214e-03
    maximum value =         1.81267e+00

      1 : [ 1.77214e-03 ; 1.82862e-01 [ =      49678
      2 : [ 1.82862e-01 ; 3.63952e-01 [ =      69244
      3 : [ 3.63952e-01 ; 5.45043e-01 [ =      31779
      4 : [ 5.45043e-01 ; 7.26133e-01 [ =      14779
      5 : [ 7.26133e-01 ; 9.07223e-01 [ =        607
      6 : [ 9.07223e-01 ; 1.08831e+00 [ =         60
      7 : [ 1.08831e+00 ; 1.26940e+00 [ =         13
      8 : [ 1.26940e+00 ; 1.45049e+00 [ =          7
      9 : [ 1.45049e+00 ; 1.63158e+00 [ =          1
     10 : [ 1.63158e+00 ; 1.81267e+00 ] =          1

  Histogram of the interior faces non-orthogonality coefficient (in degrees):

    minimum value =         2.44930e-05
    maximum value =         7.55709e+01

      1 : [ 2.44930e-05 ; 7.55712e+00 [ =      31589
      2 : [ 7.55712e+00 ; 1.51142e+01 [ =      52789
      3 : [ 1.51142e+01 ; 2.26713e+01 [ =      40545
      4 : [ 2.26713e+01 ; 3.02284e+01 [ =      25161
      5 : [ 3.02284e+01 ; 3.77855e+01 [ =      10650
      6 : [ 3.77855e+01 ; 4.53426e+01 [ =       3373
      7 : [ 4.53426e+01 ; 5.28997e+01 [ =       1231
      8 : [ 5.28997e+01 ; 6.04568e+01 [ =        616
      9 : [ 6.04568e+01 ; 6.80139e+01 [ =        164
     10 : [ 6.80139e+01 ; 7.55709e+01 ] =         51

  Histogram of the boundary faces non-orthogonality coefficient (in degrees):

    minimum value =         0.00000e+00
    maximum value =         4.51147e+01

      1 : [ 0.00000e+00 ; 4.51147e+00 [ =       3281
      2 : [ 4.51147e+00 ; 9.02295e+00 [ =        274
      3 : [ 9.02295e+00 ; 1.35344e+01 [ =         18
      4 : [ 1.35344e+01 ; 1.80459e+01 [ =        139
      5 : [ 1.80459e+01 ; 2.25574e+01 [ =         14
      6 : [ 2.25574e+01 ; 2.70688e+01 [ =         16
      7 : [ 2.70688e+01 ; 3.15803e+01 [ =          9
      8 : [ 3.15803e+01 ; 3.60918e+01 [ =         16
      9 : [ 3.60918e+01 ; 4.06033e+01 [ =          8
     10 : [ 4.06033e+01 ; 4.51147e+01 ] =          5

  Histogram of cell volumes:

    minimum value =         1.05552e-02
    maximum value =         4.81897e+00

      1 : [ 1.05552e-02 ; 4.91397e-01 [ =      76271
      2 : [ 4.91397e-01 ; 9.72239e-01 [ =       3508
      3 : [ 9.72239e-01 ; 1.45308e+00 [ =       1473
      4 : [ 1.45308e+00 ; 1.93392e+00 [ =        920
      5 : [ 1.93392e+00 ; 2.41476e+00 [ =        510
      6 : [ 2.41476e+00 ; 2.89561e+00 [ =        274
      7 : [ 2.89561e+00 ; 3.37645e+00 [ =        105
      8 : [ 3.37645e+00 ; 3.85729e+00 [ =         37
      9 : [ 3.85729e+00 ; 4.33813e+00 [ =          9
     10 : [ 4.33813e+00 ; 4.81897e+00 ] =          9

 Checking the mesh structure coherency:
    Checking the face -> cells connectivity coherency
    Coherency criteria definition
    Coherency verification on coordinates 1
    Coherency verification on coordinates 2
    Coherency verification on coordinates 3
 End of coherency check of the mesh structure.
                                                             
       ALMAX  =    0.24950E+02 (Characteristic length       )
       ALMAX is the cubic root of the domain volume.

       ALMAX is the length used to initialize the turbulence.

===============================================================

              RUNNING IN VERIFICATION MODE                   
              ============================                   
                                                             
 =========================================================== 




 Extended neighborhood reduced by non-orthogonality
 --------------------------------------------------

 Size of complete cell-cell connectivity:      5294180
 Size of filtered cell-cell conectivity:        179066
 5115114 connections removed, for a ratio of  3.4 % used


 =========================================================== 




                      END OF CALCULATION                     
                      ==================                     


===============================================================

Summary of gradient computations pour "Var. 1" (Iterative reconstruction):

  Number of calls:                  1
  Total elapsed time:                      0.178
  Total CPU time:                          0.176

Summary of gradient computations pour "Var. 1" (Least-squares (standard)):

  Number of calls:                  1
  Total elapsed time:                      0.059
  Total CPU time:                          0.056

Summary of gradient computations pour "Var. 1" (Least-squares (extended)):

  Number of calls:                  1
  Total elapsed time:                      0.547
  Total CPU time:                          0.540

Summary of gradient computations pour "Var. 1" (Least-squares (partially extended)):

  Number of calls:                  1
  Total elapsed time:                      0.091
  Total CPU time:                          0.084

Summary of gradient computations pour "Var. 1" (Least-squares then iterative):

  Number of calls:                  1
  Total elapsed time:                      0.205
  Total CPU time:                          0.200

 Destroying structures and ending computation

Mesh entity selections by criteria statistics:
  entity type     evaluations  elapsed time
  -----------------------------------------
  cells                     0       0.00000
  interior faces            0       0.00000
  boundary faces            0       0.00000

Writing of "results" (EnSight Gold) summary:

  CPU time for meshes:                     0.000
  CPU time for variables:                  0.036

  Elapsed time for meshes:                 0.003
  Elapsed time for variables:              0.031

Code_Saturne IO files read:

  mesh_input
    data:      0.01656 s,        5.000 MiB
    open:      0.01744 s, 2 open(s)

Calculation time summary:

  User CPU time:              2.112 s
  System CPU time:            0.096 s

  Elapsed time:               2.414 s
  CPU / elapsed time          0.915

Memory use summary:

  Total memory used:                             179.348 MiB
  Theoretical instrumented dynamic memory:        53.729 MiB