/usr/lib/code_saturne/cs_preprocess --log --out mesh_input 
/home/vance/Downloads/Capstone/MCCapstone13-14/CFDTut/AutomatedCylinder/MESH/mesh_d_2_smooth.med 

  .------------------------------.
  |                              |
  |   Code_Saturne Preprocessor  |
  |                              |
  `------------------------------'

  code_saturne version 2.1.0   (built Thu 26 Jan 2012 08:41:48 PM EST)

  CGNS 2.5.5 file format support
  MED 3.0.3 (HDF5 1.8.4) file format support
  Reading of compressed files ('.gz') with Zlib 1.2.3.4



Case configuration
------------------

  Date                : Wed 23 Oct 2013 05:45:26 AM EDT
  System              : Linux 3.5.0-41-generic
  Machine             : studio-ub
  Processor           : Intel(R) Core(TM)2 Duo CPU     P8700  @ 2.53GHz
  Memory              : 8142688
  User                : vance (Vance Turnewitsch)
  Directory           : /home/vance/Downloads/Capstone/MCCapstone13-14/CFDTut/AutomatedCylinder/AutoCylinder_Seg2/RESU/20131023-0545

  Case name           : preprocess
  Mesh file           : /home/vance/Downloads/Capstone/MCCapstone13-14/CFDTut/AutomatedCylinder/MESH/mesh_d_2_smooth.med



Reading mesh from file in MED (EDF/CEA) format
----------------------
  Mesh file: /home/vance/Downloads/Capstone/MCCapstone13-14/CFDTut/AutomatedCylinder/MESH/mesh_d_2_smooth.med


  Mesh name: mesh_d

  Number of vertices                          :    46034

Warning
=======
The MED mesh contains 550 elements of type seg2
which are ignored by the Preprocessor.

  Number of faces                             :    13260
                                   Family 6   :      380
                                   Family 7   :      380
                                   Family 8   :    12500
  Number of cells                             :   213448
                                   Family 0   :   213448

  Wall-clock time: 0.159525 s; CPU time: 0.068004 s


Done reading mesh
-----------------
  Theoretical mesh size:                 4.420 Mb
  Theoretical current memory:            6.338 Mb
  Theoretical peak memory:              10.604 Mb
  Total memory used:                    68.582 Mb

  Domain coordinate extents:

  [ 0.00000e+00, -9.98027e+01, -1.00000e+02]
  [ 1.50000e+02,  9.98027e+01,  1.00000e+02]
  Number of elements                    tria3 :      760
  Number of elements                    quad4 :    12500
  Number of elements                   tetra4 :   200948
  Number of elements                 pyramid5 :    12500



Defining families
-----------------


  Element orientation check.


End of conversion to descending connectivity
--------------------------------------------
  Theoretical mesh size:                12.555 Mb
  Theoretical current memory:           16.101 Mb
  Theoretical peak memory:              33.326 Mb
  Total memory used:                    90.988 Mb


Main mesh properties
--------------------

  Number of cells:                                213448
  Number of internal faces:                       426516
  Number of boundary faces:                        13260
  Number of vertices:                              46034


Definition of face and cell families
------------------------------------

  Family 1
         Group "inlet"
  Number of boundary faces :      380
  Family 2
         Group "outlet"
  Number of boundary faces :      380
  Family 3
         Group "wall"
  Number of boundary faces :    12500
  Family 3
         Default family
         (no group)
  Number of cells          :   213448
  Number of internal faces :   426516


Write output for Kernel
-----------------------

  Opening file: mesh_input

  Wrote: "start_block:dimensions"
  Wrote: "n_cells"                         ; Type: "u8"; Size: 1
  Wrote: "n_faces"                         ; Type: "u8"; Size: 1
  Wrote: "n_vertices"                      ; Type: "u8"; Size: 1
  Wrote: "face_vertices_size"              ; Type: "u8"; Size: 1
  Wrote: "n_group_classes"                 ; Type: "i4"; Size: 1
  Wrote: "n_group_class_props_max"         ; Type: "i4"; Size: 1
  Wrote: "n_groups"                        ; Type: "u8"; Size: 1
  Wrote: "group_name_index"                ; Type: "i4"; Size: 4
  Wrote: "group_name"                      ; Type: "c "; Size: 18
  Wrote: "group_class_properties"          ; Type: "i4"; Size: 4
  Wrote: "end_block:dimensions"
  Wrote: "start_block:data"
  Wrote: "face_cells"                      ; Type: "i4"; Size: 879552
  Wrote: "cell_group_class_id"             ; Type: "i4"; Size: 213448
  Wrote: "face_group_class_id"             ; Type: "i4"; Size: 439776
  Wrote: "face_vertices_index"             ; Type: "u8"; Size: 439777
  Wrote: "face_vertices"                   ; Type: "i4"; Size: 1331828
  Wrote: "vertex_coords"                   ; Type: "r8"; Size: 138102
  Wrote: "end_block:data"
  Wrote: "EOF"

  Closing file: mesh_input


Time and memory summary
-----------------------

  User CPU time                       (sec)   :        1.08
  System CPU time                     (sec)   :        0.08
  Total time                          (sec)   :        1.26
  Total CPU time / Total time                 :        0.92

Memory use summary:

  Total memory used:                                  90.988 Mb
  Theoretical instrumented dynamic memory:            33.326 Mb


  .-----------------------.
  |                       |
  |  Preprocessor finish  |
  |                       |
  `-----------------------'


