/usr/lib/code_saturne/cs_preprocess --log --out mesh_input 
/home/vance/Downloads/Capstone/MCCapstone13-14/CFDTut/BetzLimitTesting/MESH/betzlimit_tunnel_disksmall.med 

  .------------------------------.
  |                              |
  |   Code_Saturne Preprocessor  |
  |                              |
  `------------------------------'

  code_saturne version 2.1.0   (built Thu 26 Jan 2012 08:41:48 PM EST)

  CGNS 2.5.5 file format support
  MED 3.0.3 (HDF5 1.8.4) file format support
  Reading of compressed files ('.gz') with Zlib 1.2.3.4



Case configuration
------------------

  Date                : Wed 20 Nov 2013 10:06:24 AM EST
  System              : Linux 3.5.0-43-generic
  Machine             : studio-ub
  Processor           : Intel(R) Core(TM)2 Duo CPU     P8700  @ 2.53GHz
  Memory              : 8142684
  User                : vance (Vance Turnewitsch)
  Directory           : /home/vance/Downloads/Capstone/MCCapstone13-14/CFDTut/BetzLimitTesting/betzlimit_testing/RESU/20131120-1006

  Case name           : preprocess
  Mesh file           : /home/vance/Downloads/Capstone/MCCapstone13-14/CFDTut/BetzLimitTesting/MESH/betzlimit_tunnel_disksmall.med



Reading mesh from file in MED (EDF/CEA) format
----------------------
  Mesh file: /home/vance/Downloads/Capstone/MCCapstone13-14/CFDTut/BetzLimitTesting/MESH/betzlimit_tunnel_disksmall.med


  Mesh name: Mesh_3

  Number of vertices                          :     9669

Warning
=======
The MED mesh contains 173 elements of type seg2
which are ignored by the Preprocessor.

  Number of faces                             :    10090
                                   Family 6   :     1435
                                   Family 7   :     1435
                                   Family 8   :     7180
                                   Family 9   :       12
                                   Family 10  :       12
                                   Family 11  :       16
  Number of cells                             :    41360
                                   Family 0   :    41360

  Wall-clock time: 0.019335 s; CPU time: 0.016001 s


Done reading mesh
-----------------
  Theoretical mesh size:               804.287 Kb
  Theoretical current memory:            1.007 Mb
  Theoretical peak memory:               2.346 Mb
  Total memory used:                    60.113 Mb

  Domain coordinate extents:

  [-1.10884e-14, -9.99995e+01, -1.00000e+02]
  [ 3.00000e+02,  9.99995e+01,  1.00000e+02]
  Number of elements                    tria3 :    10090
  Number of elements                   tetra4 :    41360



Defining families
-----------------


  Element orientation check.


End of conversion to descending connectivity
--------------------------------------------
  Theoretical mesh size:                 1.971 Mb
  Theoretical current memory:            2.192 Mb
  Theoretical peak memory:               6.321 Mb
  Total memory used:                    63.688 Mb


Main mesh properties
--------------------

  Number of cells:                                 41360
  Number of internal faces:                        77675
  Number of boundary faces:                        10090
  Number of vertices:                               9669


Definition of face and cell families
------------------------------------

  Family 1
         Group "disk_inlet"
  Number of boundary faces :       12
  Family 2
         Group "disk_outlet"
  Number of boundary faces :       12
  Family 3
         Group "disk_walls"
  Number of boundary faces :       16
  Family 4
         Group "tunnel_inlet"
  Number of boundary faces :     1435
  Family 5
         Group "tunnel_outlet"
  Number of boundary faces :     1435
  Family 6
         Group "tunnel_walls"
  Number of boundary faces :     7180
  Family 6
         Default family
         (no group)
  Number of cells          :    41360
  Number of internal faces :    77675


Write output for Kernel
-----------------------

  Opening file: mesh_input

  Wrote: "start_block:dimensions"
  Wrote: "n_cells"                         ; Type: "u8"; Size: 1
  Wrote: "n_faces"                         ; Type: "u8"; Size: 1
  Wrote: "n_vertices"                      ; Type: "u8"; Size: 1
  Wrote: "face_vertices_size"              ; Type: "u8"; Size: 1
  Wrote: "n_group_classes"                 ; Type: "i4"; Size: 1
  Wrote: "n_group_class_props_max"         ; Type: "i4"; Size: 1
  Wrote: "n_groups"                        ; Type: "u8"; Size: 1
  Wrote: "group_name_index"                ; Type: "i4"; Size: 7
  Wrote: "group_name"                      ; Type: "c "; Size: 74
  Wrote: "group_class_properties"          ; Type: "i4"; Size: 7
  Wrote: "end_block:dimensions"
  Wrote: "start_block:data"
  Wrote: "face_cells"                      ; Type: "i4"; Size: 175530
  Wrote: "cell_group_class_id"             ; Type: "i4"; Size: 41360
  Wrote: "face_group_class_id"             ; Type: "i4"; Size: 87765
  Wrote: "face_vertices_index"             ; Type: "u8"; Size: 87766
  Wrote: "face_vertices"                   ; Type: "i4"; Size: 263295
  Wrote: "vertex_coords"                   ; Type: "r8"; Size: 29007
  Wrote: "end_block:data"
  Wrote: "EOF"

  Closing file: mesh_input


Time and memory summary
-----------------------

  User CPU time                       (sec)   :        0.14
  System CPU time                     (sec)   :        0.01
  Total time                          (sec)   :        0.15
  Total CPU time / Total time                 :        1.00

Memory use summary:

  Total memory used:                                  63.688 Mb
  Theoretical instrumented dynamic memory:             6.321 Mb


  .-----------------------.
  |                       |
  |  Preprocessor finish  |
  |                       |
  `-----------------------'


