command: 
 /usr/lib/code_saturne/cs_solver --param betzlimit_cylinder_basic2.xml --mpi

***************************************************************

                                  (R)
                      Code_Saturne

                      Version 2.1.0


  Copyright (C) 1998-2011 EDF S.A., France

  build Thu 26 Jan 2012 08:44:04 PM EST
  MPI version 2.1 (Open MPI 1.4.3)


  The Code_Saturne CFD tool  is free software;
  you can redistribute it and/or modify it under the terms
  of the GNU General Public License as published by the
  Free Software Foundation; either version 2 of the License,
  or (at your option) any later version.

  The Code_Saturne CFD tool is distributed in the hope that
  it will be useful, but WITHOUT ANY WARRANTY; without even
  the implied warranty of MERCHANTABILITY or FITNESS FOR A
  PARTICULAR PURPOSE.  See the GNU General Public License
  for more details.

***************************************************************


Local case configuration:

  Date:              Thu 05 Dec 2013 12:48:30 AM EST
  System:            Linux 3.5.0-43-generic
  Machine:           studio-ub
  Processor:         Intel(R) Core(TM)2 Duo CPU     P8700  @ 2.53GHz
  Memory:            7951 MB
  User:              vance (Vance Turnewitsch)
  Directory:         /home/vance/Downloads/Capstone/MCCapstone13-14/CFDTut/BetzLimitTesting/betzlimit_testing_basic/RESU/20131205-0048
  MPI ranks:         2 (appnum attribute: 0)
  I/O mode:          MPI-IO, explicit offsets

===============================================================

                   CALCULATION PREPARATION
                   =======================


 ===========================================================



 Reading metadata from file: "mesh_input"

 No error detected during the data verification
                              (interface, usini1 and others).


 ===========================================================

               CALCULATION PARAMETERS SUMMARY
               ==============================

 -----------------------------------------------------------


 ** DIMENSIONS
    ----------

 --- Geometry
       NPRFML =              1 (Nb max. family properties   )
       NFML   =              4 (Nb families                 )

 --- Physics
       NVAR   =              5 (Nb variables                )
       NSCAL  =              1 (Nb scalars                  )
       NSCAUS =              1 (Nb user scalars             )
       NSCAPP =              0 (Nb specific physics scalars )
       NPROCE =              6 (Nb cell properties          )
       NPROFA =              1 (Nb internal face properties )
       NPROFB =              2 (Nb boundary face properties )


 -----------------------------------------------------------


 ** PHYSICAL PROPERTIES
    -------------------

       GX     =    0.00000E+00 (Gravity x component         )
       GY     =    0.00000E+00 (Gravity y component         )
       GZ     =    0.00000E+00 (Gravity z component         )

       OMEGAX =    0.00000E+00 (Rotation vector x component )
       OMEGAY =    0.00000E+00 (Rotation vector y component )
       OMEGAZ =    0.00000E+00 (Rotation vector z component )
       ICORIO =          0 (Coriolis source terms       )

  -- Continuous phase: 

       RO0    =    0.11400E+01 (Reference density           )
       VISCL0 =    0.19500E-04 (Ref. molecular dyn. visc.   )
       CP0    =    0.20600E+04 (Ref. specific heat          )
       ICP    =              0 (> 0: variable CP (usphyv)   )
       P0     =    0.10132E+06 (Ref. total pressure         )
       PRED0  =    0.00000E+00 (Ref. reduced pressure       )
       T0     =    0.00000E+00 (Ref. temperature            )

       IROVAR =              0 (Density constant(0) or not(1)
       IVIVAR =              0 (Molec. visc cst.(0) or not(1)

       Initial reference point for pressure
       XYZP0  =    0.00000E+00   0.00000E+00   0.00000E+00

 -----------------------------------------------------------


 ** TURBULENCE
    ----------

 --- Continuous phase: 

   - Commons                                                 
       ITURB  =              0 (Turbulence model            )
       IDEUCH =              0 (0: one-scale model          )
                               (1: two-scale model          )
                               (2: invariant wall function  )
       YPLULI =    0.23810E+01 (Limit Y+                    )
       ILOGPO =              1 (0: power law (forbidden for
                                              k-epsilon)    )
                               (1: one-scale log law        )
       IGRHOK =              0 (1: computed Grad(rho k)     )
       ISCALT =              1 (Temperature salar number    )

 --- Constants

   - Commons                                                 
       XKAPPA =    0.42000E+00 (Von Karman constant         )
       CSTLOG =    0.52000E+01 (U+=Log(y+)/kappa +CSTLOG    )
       APOW   =    0.83000E+01 (U+=APOW (y+)**BPOW (W&W law))
       BPOW   =    0.14286E+00 (U+=APOW (y+)**BPOW (W&W law))


 -----------------------------------------------------------


 ** SECONDARY VISCOSITY
    -------------------

 --- Continuous phase:          1
       IVISSE = 

 -----------------------------------------------------------


 ** TIME STEPPING
    -------------

    UNSTEADY ALGORITHM

 --- Time step parameters

       IDTVAR =              0 (0 cst; 1,2 var (t, t-space  )
       IPTLRO =              0 (1: rho-related DT clipping  )
       COUMAX =    0.10000E+01 (Maximum target CFL          )
       FOUMAX =    0.10000E+02 (Maximum target Fourier      )
       VARRDT =    0.10000E+00 (For var. DT, max. increase  )
       DTMIN  =    0.10000E-01 (Minimum time step           )
       DTMAX  =    0.10000E+03 (Maximum time step           )
       DTREF  =    0.10000E+00 (Reference time step         )

       With a non-constant time step (IDTVAR = 1 or 2),
         when the value of COUMAX or FOUMAX is negative
         or zero, the associated time step limitation (for
         CFL and Fourier respectively) is ignored.

 --- Frozen velocity field

       ICCVFG =              0 (1: frozen velocity field    )

 --- Per-variable properties

----------------------------
 Variable  ISTAT      CDTVAR
----------------------------
 Pressure      0  0.1000E+01
 Velocity      1  0.1000E+01
 Velocity      1  0.1000E+01
 Velocity      1  0.1000E+01
 TempC         1  0.1000E+01
----------------------------

       ISTAT  =  0 ou  1       (1 for unsteady              )
       CDTVAR >  0             (time step multiplier        )

 --- Order of base time stepping scheme
       ISCHTP =              1 (1: order 1; 2: order 2      )
                                                             

 -----------------------------------------------------------


 ** CONVECTION - DIFFUSION
    ----------------------

-------------------------------------------------------------
 Variable  ICONV  IDIFF IDIFFT ISCHCV ISSTPC   BLENCV  THETAV
-------------------------------------------------------------
 Pressure      0      1      1      1      0 0.00E+00 0.10E+01
 Velocity      1      1      1      1      0 0.10E+01 0.10E+01
 Velocity      1      1      1      1      0 0.10E+01 0.10E+01
 Velocity      1      1      1      1      0 0.10E+01 0.10E+01
 TempC         1      1      1      1      0 0.10E+01 0.10E+01
-------------------------------------------------------------

       ICONV  =  0 ou  1       (1 for convection active     )
       IDIFF  =  0 ou  1       (1 for total diffusion active)
       IDIFFT =  0 ou  1       (1 for turbulent diff. active)
       ISCHCV =  0 ou  1       (SOLU or CD                  )
       ISSTPC =  0 ou  1       (1: no slope test            )
       BLENCV =  [0.;1.]       (1-upwind proportion         )
       THETAV =  [0.;1.]       (0.5 Crank-Nicolson/AB       )
                               (theta for convection-       )
                               (diffusion terms uses        )
                               ((1-theta).old+theta.new     )


 -----------------------------------------------------------


 ** STOKES
    ------
       IPHYDR =              0 (1: account for explicit
                                   balance between pressure
                                   gradient, gravity source
                                   terms, and head losses     )
       ICALHY =              0 (1: compute hydrastatic
                                   pressure for Dirichlet
                                   conditions for pressure
                                   on outlet                  )
       IPRCO  =              1 (1: pressure-continuity        )
       IPUCOU =              0 (1: reinforced U-P coupling    )
       NTERUP =              1 (n: n sweeps on navsto for
                                   velocity/pressure coupling )

  -- Continuous phase: 

       IREVMC =              0 (Velocity reconstruction mode)

       RELAXV =    0.10000E+01 for pressure (relaxation)
       ARAK   =    0.10000E+01 (Arakawa factor              )

       ISTMPF =              1 (time scheme for flow
                               (0: explicit (THETFL = 0     )
                               (1: std scheme (Saturne 1.0  )
                               (2: 2nd-order (THETFL = 0.5  )
       THETFL =   -0.99900E+03 (theta for mass flow         )
       IROEXT =              0 (density extrapolation
                               (0: explicit
                               (1: n+thetro with thetro=1/2
                               (2: n+thetro with thetro=1
       THETRO =    0.00000E+00 (theta for density
                               ((1+theta).new-theta.old
       IVIEXT =              0 (total viscosity extrapolation
                               (0: explicit
                               (1: n+thetvi with thetro=1/2
                               (2: n+thetvi with thetro=1
       THETVI =    0.00000E+00 (theta for total viscosity
                               ((1+theta).new-theta.old
       ICPEXT =              0 (specific heat extrapolation
                               (0: explicit
                               (1: n+thetcp with thetro=1/2
                               (2: n+thetcp with thetro=1
       THETCP =    0.00000E+00 (specific heat theta-scheme
                               ((1+theta).new-theta.old
       THETSN =    0.00000E+00 (Nav-Stokes S.T. theta scheme)
                               ((1+theta).new-theta.old
       THETST =    0.00000E+00 (Turbulence S.T. theta-scheme)
                               ((1+theta).new-theta.old
       EPSUP  =    0.10000E-04 (Velocity/pressure coupling
                                stop test                   )


 -----------------------------------------------------------


 ** GRADIENTS CALCULATION
    ---------------------

       IMRGRA =              0 (Reconstruction mode         )
       ANOMAX =    0.78540E+00 (Non-ortho angle: limit for  )
                               (least squares ext. neighbors)

-----------------------------------------------------------
 Variable NSWRGR NSWRSM      EPSRGR      EPSRSM      EXTRAG
-----------------------------------------------------------
 Pressure    100      2  0.1000E-04  0.1000E-07  0.0000E+00
 Velocity    100      1  0.1000E-04  0.1000E-07  0.0000E+00
 Velocity    100      1  0.1000E-04  0.1000E-07  0.0000E+00
 Velocity    100      1  0.1000E-04  0.1000E-07  0.0000E+00
 TempC       100      1  0.1000E-04  0.1000E-07  0.0000E+00
-----------------------------------------------------------  

-----------------------------------
 Variable IRCFLU IMLIGR      CLIMGR
-----------------------------------
 Pressure      1     -1  0.1500E+01
 Velocity      1     -1  0.1500E+01
 Velocity      1     -1  0.1500E+01
 Velocity      1     -1  0.1500E+01
 TempC         1     -1  0.1500E+01
-----------------------------------

       NSWRGR =                (nb sweep gradient reconstr. )
       NSWRSM =                (nb sweep rhs reconstrcution )
       EPSRGR =                (grad. reconstruction prec.  )
       EPSRSM =                (rhs   reconstruction prec.  )
       EXTRAG =  [0.;1.]       (gradients extrapolation     )
       IRCFLU =  0 ou  1       (flow reconstruction         )
       IMLIGR =  < 0, 0 ou 1   (gradient limitation method  )
       CLIMGR =  > 1 ou 1      (gradient limitation coeff.  )


 -----------------------------------------------------------


 ** FACE INTERPOLATION
    ------------------
       IMVISF =              0 (0 arithmetic                )


 -----------------------------------------------------------


 ** CALCULATION OF TEMPORAL MEANS (MOMENTS)
    ---------------------------------------

       NBMOMT =              0 (Number of moments           )

 -----------------------------------------------------------


 ** BASE ITERATIVE SOLVERS
    ----------------------

------------------------------------------
 Variable IRESOL NITMAX      EPSILO IDIRCL
------------------------------------------
 Pressure     -1  10000  0.1000E-07      1
 Velocity     -1  10000  0.1000E-07      1
 Velocity     -1  10000  0.1000E-07      1
 Velocity     -1  10000  0.1000E-07      1
 TempC        -1  10000  0.1000E-07      1
-----------------------------------

       IRESOL =            -1  (automatic solver choice     )
                IPOL*1000 + 0  (p conjuguate gradient       )
                            1  (Jacobi                      )
                IPOL*1000 + 2  (bicgstab                    )
                  avec IPOL    (preconditioning degree      )
       NITMAX =                (max number of iterations    )
       EPSILO =                (resolution precision        )
       IDIRCL = 0 ou 1         (shift diagonal if          
                                ISTAT=0 and no Dirichlet    )


 -----------------------------------------------------------


 ** MULTIGRID
    ---------

       NCEGRM =             30 (Max nb cells coarsest grid  )
       NGRMAX =             25 (Max number of levels        )
------------------------------                               
 Variable   IMGR NCYMAX NITMGF                               
------------------------------                               
 Pressure      1    100     10
 Velocity      0    100     10
 Velocity      0    100     10
 Velocity      0    100     10
 TempC         0    100     10
------------------------------

       IMGR   =  0 ou 1        (1: multigrid activated      )
       NCYMAX =                (Max number  of cycles       )
       NITMGF =                (Max nb iter on coarsest grid)


  Multigrid rank merge parameters:
    mean  coarse cells merge threshold: 300
    total coarse cells merge threshold: 500
    minimum ranks merge threshold:      1
    merge stride:                       1

 -----------------------------------------------------------


 ** SCALARS
    -------

       ITBRRB =              0 (T or H reconstruction at bdy)

------------------------------------------------------
 Variable Number ISCSTH IVISLS      VISLS0      SIGMAS
------------------------------------------------------
 TempC         1     -1      0  0.6311E-04  0.1000E+01
------------------------------------------------------

-----------------------------------
 Variable Number ISCAVR      RVARFL
-----------------------------------
 TempC         1      0  0.8000E+00
-----------------------------------

-----------------------------------------------
 Variable Number ICLVFL      SCAMIN      SCAMAX
-----------------------------------------------
 TempC         1     -1  0.5000E+02  0.2000E+03
-----------------------------------------------

-------------------------------------------------------------

       For each scalar, the number indicates it's rank
         in the list of all scalars. User scalars are placed
         first, from 1 to NSCAUS. Specific physics scalars
         are placed at the end, from
         NSCAUS+1 to NSCAPP+NSCAUS=NSCAL.

       ISCSTH = -1,0, 1 ou 2   (T (C), Passive, T (K) or H  )
       IVISLS = 0 ou >0        (Viscosity: constant or not  )
       VISLS0 = >0             (Reference viscosity         )
       SIGMAS = >0             (Schmidt                     )
       ISCAVR = 0 ou >0        (Associat. scalar if variance)
       RVARFL = >0             (Rf, cf variance dissipation )
       ICLVFL = 0, 1 ou 2      (Variance clipping mode      )
       SCAMIN =                (Min authorized value        )
       SCAMAX =                (Max authorized value        )
        For variances, SCAMIN is ignored and SCAMAX is used
          only if ICLVFL = 2

------------------------------------------------------
   Scalar        THETSS    IVSEXT      THETVS
------------------------------------------------------
          1  0.0000E+00         0  0.0000E+00
------------------------------------------------------

       THETSS =                (theta for source terms      )
                               ((1+theta).new-theta.old     )
       IVSEXT =                (extrap. total viscosity     )
                               (0: explicit                 )
                               (1: n+thetvs with thetvs=1/2 )
                               (2: n+thetvs with thetvs=1   )
       THETVS =                (theta for scalar diffusivity
                               ((1+theta).new-theta.old     )


 -----------------------------------------------------------


 ** CALCULATION MANAGEMENT
    ----------------------

 --- Restarted calculation
       ISUITE =              0 (1: restarted calculuation   )
       ILEAUX =              1 (1: also read  suiamx        )
       IECAUX =              1 (1: also write suiavx        )

       suiamx and suiavx are the auxiliary restart files.

 --- Calculation time
     The numbering of time steps and the measure of simulated
       physical time are absolute values, and not values
       relative to the current calculation.

       INPDT0 =              0 (1: 0 time step calcuation   )
       NTMABS =             10 (Final time step required    )

 --- CPU time margin
       TMARUS =   -0.10000E+01 (CPU time margin before stop )


 -----------------------------------------------------------


 ** INPUT-OUTPUT
    ------------

 --- Restart file
       NTSUIT =              0 (Checkpoint frequency )

 --- Post-processed variables

       Number Name
            2 Pressure        
            3 VelocityX       
            4 VelocityY       
            5 VelocityZ       
            6 TempC           
            9 CourantNb       
           10 FourierNb       
           11 total_pressure  
         --           --

 --- Probe history files
       NTHIST =              1 (Output frequency     )
       FRHIST =     -.10000E+01 (Output frequency (s) )
       NCAPT  =              2 (Number of probes     )
       NTHSAV =             -1 (Checkpoint frequency )

       Number Name                  Nb. probes (-1: all)
            2 Pressure                      -1
            3 VelocityX                     -1
            4 VelocityY                     -1
            5 VelocityZ                     -1
            6 TempC                         -1
            7 Density                       -1
            8 LamVisc                       -1
            9 CourantNb                     -1
           10 FourierNb                     -1
           11 total_pressure                -1
         --           --                --

 --- Log files
       NTLIST =              1 (Output frequency     )

       Number Name                IWARNI verbosity level
                                      (-999: not applicable)

            2 Pressure                       0
            3 VelocityX                      0
            4 VelocityY                      0
            5 VelocityZ                      0
            6 TempC                          0
            9 CourantNb                   -999
           10 FourierNb                   -999
           11 total_pressure              -999
         --           --                --

 --- Additional post-processing variables
       IPSTDV =            210 (Product of the following     
                                values based on activation  )
       IPSTYP =              2 (Yplus          on boundary  )
       IPSTCL =              3 (Variables      on boundary  )
       IPSTFT =              5 (Thermal flow   on boundary  )
       IPSTFO =              7 (Force exerted  on boundary  )
  and  IPSTDV =              1 (No additional output        )


 -----------------------------------------------------------


 ** ALE METHOD (MOVING MESH)
    -----------                                              

       IALE   =              0 (1: activated                )
       NALINF =           -999 (Fluid initialization
                                                  iterations)


 -----------------------------------------------------------


 Reading file:        mesh_input
 Finished reading:    mesh_input
 No "partition/domain_number_2" file available;
   domain partitioning will use a space-filling curve.

 Partitioning by space-filling curve: Morton (in bounding box).

Postprocessing output writers:
------------------------------

  -1: name: empty_cylinder_simple
      directory: postprocessing
      format: EnSight Gold
      options: 
      time dependency: fixed mesh
      output: at calculation end


 ----------------------------------------------------------

 Halo construction with standard neighborhood
 ============================================

 Face interfaces creation
 Vertex interfaces creation
 Halo creation
 Halo definition
    Local halo definition
    Distant halo creation
    Updating the faces -> cells connectivity

 Halo creation times summary

     Interface creation:                       0.000128 s
     Halo creation:                             0.000145 s

     Total time for halo creation:              0.000273 s

 ----------------------------------------------------------


 Histogram of the number of cells per rank:

    minimum value =                432
    maximum value =                432

      1 : [        432 ;        432 ] =          2

 ----------------------------------------------------------

 Histogram of the number of standard + halo cells per rank:

    minimum value =                462
    maximum value =                464

      1 : [        462 ;        463 [ =          1
      2 : [        463 ;        464 ] =          1

 ----------------------------------------------------------

 Histogram of the number of ghost cells per rank:

    minimum value =                 30
    maximum value =                 32

      1 : [         30 ;         31 [ =          1
      2 : [         31 ;         32 ] =          1

 ----------------------------------------------------------

 Histogram of the number of interior faces per rank:

    minimum value =                755
    maximum value =                773

      1 : [        755 ;        758 [ =          1
      2 : [        758 ;        762 [ =          0
      3 : [        762 ;        765 [ =          0
      4 : [        765 ;        769 [ =          0
      5 : [        769 ;        773 ] =          1

 ----------------------------------------------------------

 Histogram of the number of boundary faces per rank:

    minimum value =                221
    maximum value =                257

      1 : [        221 ;        228 [ =          1
      2 : [        228 ;        235 [ =          0
      3 : [        235 ;        242 [ =          0
      4 : [        242 ;        249 [ =          0
      5 : [        249 ;        257 ] =          1

 ----------------------------------------------------------

 Histogram of the number of interior faces per cell:

    minimum value =                  3
    maximum value =                  4

      1 : [          3 ;          4 ] =        864

 ----------------------------------------------------------

 Histogram of the number of neighboring domains per rank:

    minimum value =                  1
    maximum value =                  1

      1 : [          1 ;          1 ] =          2

 ----------------------------------------------------------

 Global definition of the number of elements (cells, vertices, faces...)
Synchronizing cell families

 Renumbering mesh:

 Mesh coordinates:               minimum    and maximum
                       X :  0.0000000e+00  5.0000000e+01
                       Y : -9.9848834e+00  9.9848251e+00
                       Z : -1.0000000e+01  1.0000000e+01
 Mesh
     Number of cells:          864
     Number of interior faces: 1489
     Number of boundary faces: 478
     Number of vertices:       289

 Groups:
    "inletFace"
       boundary faces:           31
    "outletFace"
       boundary faces:           31
    "wallFace"
       boundary faces:          416

 --- Information on the volumes
       Minimum control volume      =  3.7862146e+00
       Maximum control volume      =  7.1360115e+01
       Total volume for the domain =  1.5346794e+04

 Computing geometric quantities (0.000363 s)
                                                             
       ALMAX  =    0.24771E+02 (Characteristic length       )
       ALMAX is the cubic root of the domain volume.

                                                             
 ----------------------------------------------------------- 
                                                             
                                                             
 ** VARIABLES INITIALIZATION                                 
    ------------------------                                 
                                                             
 ---------------------------------                           
  Variable  Min. value  Max. value                           
 ---------------------------------                           
  Pressure  0.0000E+00  0.0000E+00
  Velocity  0.5000E+01  0.5000E+01
  Velocity  0.0000E+00  0.0000E+00
  Velocity  0.0000E+00  0.0000E+00
  TempC     0.5000E+02  0.5000E+02
 ---------------------------------                           

  VisTur    0.1000E+00  0.1000E+00
 ---------------------------------                           



-------------------------------------------------------------



===============================================================



                       MAIN CALCULATION                      
                       ================                      


===============================================================




===============================================================


 INSTANT    0.100000000E+00   TIME STEP NUMBER               1
 ============================================================= 


 ---------------------------------                           
 Property   Min. value  Max. value                           
 ---------------------------------                           
  Density   0.1140E+01  0.1140E+01
  LamVisc   0.1950E-04  0.1950E-04
 ---------------------------------                           

 --- Diffusivity:                                            
 ---------------------------------------                     
 Scalar   Number  Min. value  Max. value                     
 ---------------------------------------                     
 TempC         1  0.6311E-04  0.6311E-04
 ---------------------------------------                     



   ** INFORMATION ON BOUNDARY FACES TYPE
      ----------------------------------

-------------------------------------------------------------------------
Boundary type          Code    Nb faces
-------------------------------------------------------------------------
Inlet                     2          31
Smooth wall               5         416
Rough wall                6           0
Symmetry                  4           0
Free outlet               3          31
Undefined                 1           0
-------------------------------------------------------------------------


Boundary faces with free inlet/outlet detected
Update of reference point for total pressure
 XYZP0 =    0.50000E+02   0.25708E+00   0.78280E+00



   ** BOUNDARY MASS FLOW INFORMATION
      ------------------------------

---------------------------------------------------------------
Boundary type          Code    Nb faces           Mass flow
---------------------------------------------------------------
Inlet                     2          31         0.000000000E+00
Smooth wall               5         416         0.000000000E+00
Rough wall                6           0         0.000000000E+00
Symmetry                  4           0         0.000000000E+00
Free outlet               3          31         0.000000000E+00
Undefined                 1           0         0.000000000E+00
---------------------------------------------------------------


   ** BOUNDARY CONDITIONS FOR SMOOTH WALLS
   ---------------------------------------
------------------------------------------------------------
                                         Minimum     Maximum
------------------------------------------------------------
   Rel velocity at the wall uiptn :  0.42761E+01 0.43761E+01
   Friction velocity        uet   :  0.17311E+00 0.19215E+00
   Friction velocity        uk    :  0.17311E+00 0.19215E+00
   Dimensionless distance   yplus :  0.60467E+04 0.20323E+05
   ------------------------------------------------------   
   Nb of reversal of the velocity at the wall   :          0
   Nb of faces within the viscous sub-layer     :          0
   Total number of wall faces                   :        416
------------------------------------------------------------


@                                                            
@@@@@@@@@@@@@@@@@@@@@@@@@@@@@@@@@@@@@@@@@@@@@@@@@@@@@@@@@@@@@
@                                                            
@ @@ WARNING: MESH NOT ENOUGH REFINED AT THE WALL            
@    ========                                                
@    The mesh does not seem to be enough refined at the wall 
@      to be able to run a laminar simulation.               
@                                                            
@    The last time step at which too large values for the    
@      dimensionless distance to the wall (yplus) have been  
@      observed is the time step          1
@                                                            
@    The minimum value for yplus must be lower than the      
@      limit value YPLULI =    0.23810E+01
@                                                            
@    Have a look at the distribution of yplus at the wall    
@      (with EnSight for example) to conclude on the way     
@      the results quality might be affected.                
@                                                            
@    This warning is only printed at the first two           
@      occurences of the problem and at the last time step   
@      of the calculation. The vanishing of the message does 
@      not necessarily mean the vanishing of the problem.    
@                                                            
@@@@@@@@@@@@@@@@@@@@@@@@@@@@@@@@@@@@@@@@@@@@@@@@@@@@@@@@@@@@@
@                                                            


   ** INFORMATION ON CONVERGENCE
      --------------------------
---------------------------------------------------------------
   Variable    Rhs norm      N_iter  Norm. residual      derive
---------------------------------------------------------------
c  Pressure     0.24413E+03     556   0.89388E-08   0.95443E+00 
c  VelocityX    0.36096E+05       2   0.39036E-12   0.15395E+03 
c  VelocityY    0.73730E-03       3   0.47384E-11   0.23318E+00 
c  VelocityZ    0.70331E-03       3   0.51166E-11   0.18451E+00 
c  TempC        0.36095E+06       7   0.52535E-08   0.71119E-07 
---------------------------------------------------------------
  
  

   ** INFORMATION ON VARIABLES
      ------------------------
---------------------------------------------------------------
   Variable      Min. value    Max. value   Min clip   Max clip
---------------------------------------------------------------
v  Pressure    -0.22520E+04  -0.21134E+02         --         -- 
v  VelocityX    0.72865E+00   0.47378E+01         --         -- 
v  VelocityY   -0.16590E+01   0.16520E+01         --         -- 
v  VelocityZ   -0.11048E+01   0.17720E+01         --         -- 
v  TempC        0.50000E+02   0.50003E+02        274          0 
v  CourantNb    0.00000E+00   0.00000E+00          0          0 
v  FourierNb    0.96514E-06   0.84507E-05          0          0 
v  total_pressu 0.99073E+05   0.10130E+06          0          0 
---------------------------------------------------------------
  
  

   ** INFORMATION ON CLIPPINGS
      ------------------------
---------------------------------------------------------------
   Variable    Min wo clips  Max wo clips   Min clip   Max clip
---------------------------------------------------------------
a  TempC        0.44828E+02   0.50003E+02        274          0 
---------------------------------------------------------------
  
  

   ** INFORMATION ON THE TIME STEP
      -----------------------------
---------------------------------------------------------------
Criterion    Value      at         xc           yc           zc
---------------------------------------------------------------
Courant min  0.00000E+00  0.15569E+02 -0.23260E+01  0.83275E+01  
Courant max  0.00000E+00  0.15569E+02 -0.23260E+01  0.83275E+01  
Fourier min  0.96514E-06  0.97764E+01 -0.12977E+01 -0.92083E+00  
Fourier max  0.84507E-05  0.21872E+01 -0.79475E+01  0.27415E+01  
Cou_Fou min  0.96514E-06  0.97764E+01 -0.12977E+01 -0.92083E+00  
Cou_Fou max  0.84507E-05  0.21872E+01 -0.79475E+01  0.27415E+01  
---------------------------------------------------------------
  
  

 CPU TIME FOR THE TIME STEP                1:        0.28002E-01

===============================================================


 INSTANT    0.200000000E+00   TIME STEP NUMBER               2
 ============================================================= 




   ** BOUNDARY MASS FLOW INFORMATION
      ------------------------------

---------------------------------------------------------------
Boundary type          Code    Nb faces           Mass flow
---------------------------------------------------------------
Inlet                     2          31        -0.338981793E+03
Smooth wall               5         416         0.137728370E-13
Rough wall                6           0         0.000000000E+00
Symmetry                  4           0         0.000000000E+00
Free outlet               3          31         0.338981777E+03
Undefined                 1           0         0.000000000E+00
---------------------------------------------------------------


   ** BOUNDARY CONDITIONS FOR SMOOTH WALLS
   ---------------------------------------
------------------------------------------------------------
                                         Minimum     Maximum
------------------------------------------------------------
   Rel velocity at the wall uiptn :  0.71665E+00 0.19825E+01
   Friction velocity        uet   :  0.34838E-01 0.93498E-01
   Friction velocity        uk    :  0.34838E-01 0.93498E-01
   Dimensionless distance   yplus :  0.15439E+04 0.65674E+04
   ------------------------------------------------------   
   Nb of reversal of the velocity at the wall   :          0
   Nb of faces within the viscous sub-layer     :          0
   Total number of wall faces                   :        416
------------------------------------------------------------


@                                                            
@@@@@@@@@@@@@@@@@@@@@@@@@@@@@@@@@@@@@@@@@@@@@@@@@@@@@@@@@@@@@
@                                                            
@ @@ WARNING: MESH NOT ENOUGH REFINED AT THE WALL            
@    ========                                                
@    The mesh does not seem to be enough refined at the wall 
@      to be able to run a laminar simulation.               
@                                                            
@    The last time step at which too large values for the    
@      dimensionless distance to the wall (yplus) have been  
@      observed is the time step          2
@                                                            
@    The minimum value for yplus must be lower than the      
@      limit value YPLULI =    0.23810E+01
@                                                            
@    Have a look at the distribution of yplus at the wall    
@      (with EnSight for example) to conclude on the way     
@      the results quality might be affected.                
@                                                            
@    This warning is only printed at the first two           
@      occurences of the problem and at the last time step   
@      of the calculation. The vanishing of the message does 
@      not necessarily mean the vanishing of the problem.    
@                                                            
@@@@@@@@@@@@@@@@@@@@@@@@@@@@@@@@@@@@@@@@@@@@@@@@@@@@@@@@@@@@@
@                                                            


   ** INFORMATION ON CONVERGENCE
      --------------------------
---------------------------------------------------------------
   Variable    Rhs norm      N_iter  Norm. residual      derive
---------------------------------------------------------------
c  Pressure     0.12121E+03     466   0.86083E-08   0.10034E+01 
c  VelocityX    0.79887E+04       8   0.89321E-09   0.24036E+00 
c  VelocityY    0.78090E+03       8   0.19537E-08   0.40981E-01 
c  VelocityZ    0.67655E+03       8   0.24177E-08   0.39188E-01 
c  TempC        0.36095E+06       7   0.40065E-08   0.71112E-08 
---------------------------------------------------------------
  
  

   ** INFORMATION ON VARIABLES
      ------------------------
---------------------------------------------------------------
   Variable      Min. value    Max. value   Min clip   Max clip
---------------------------------------------------------------
v  Pressure    -0.54014E+02  -0.71655E+00         --         -- 
v  VelocityX    0.30721E+00   0.43584E+01         --         -- 
v  VelocityY   -0.17077E+01   0.16177E+01         --         -- 
v  VelocityZ   -0.12003E+01   0.18305E+01         --         -- 
v  TempC        0.50000E+02   0.50002E+02        253          0 
v  CourantNb    0.21430E-01   0.23003E+00          0          0 
v  FourierNb    0.96514E-06   0.84507E-05          0          0 
v  total_pressu 0.10127E+06   0.10132E+06          0          0 
---------------------------------------------------------------
  
  

   ** INFORMATION ON CLIPPINGS
      ------------------------
---------------------------------------------------------------
   Variable    Min wo clips  Max wo clips   Min clip   Max clip
---------------------------------------------------------------
a  TempC        0.44828E+02   0.50002E+02        253          0 
---------------------------------------------------------------
  
  

   ** INFORMATION ON THE TIME STEP
      -----------------------------
---------------------------------------------------------------
Criterion    Value      at         xc           yc           zc
---------------------------------------------------------------
Courant min  0.21430E-01  0.22931E+01 -0.31838E+01 -0.39995E+01  
Courant max  0.23003E+00  0.66933E+00 -0.57200E+00  0.50131E+01  
Fourier min  0.96514E-06  0.97764E+01 -0.12977E+01 -0.92083E+00  
Fourier max  0.84507E-05  0.21872E+01 -0.79475E+01  0.27415E+01  
Cou_Fou min  0.21434E-01  0.22931E+01 -0.31838E+01 -0.39995E+01  
Cou_Fou max  0.23004E+00  0.66933E+00 -0.57200E+00  0.50131E+01  
---------------------------------------------------------------
  
  

 CPU TIME FOR THE TIME STEP                2:        0.20001E-01

===============================================================


 INSTANT    0.300000000E+00   TIME STEP NUMBER               3
 ============================================================= 




   ** BOUNDARY MASS FLOW INFORMATION
      ------------------------------

---------------------------------------------------------------
Boundary type          Code    Nb faces           Mass flow
---------------------------------------------------------------
Inlet                     2          31        -0.338981793E+03
Smooth wall               5         416         0.801740401E-15
Rough wall                6           0         0.000000000E+00
Symmetry                  4           0         0.000000000E+00
Free outlet               3          31         0.338981784E+03
Undefined                 1           0         0.000000000E+00
---------------------------------------------------------------


   ** BOUNDARY CONDITIONS FOR SMOOTH WALLS
   ---------------------------------------
------------------------------------------------------------
                                         Minimum     Maximum
------------------------------------------------------------
   Rel velocity at the wall uiptn :  0.53578E+00 0.12704E+01
   Friction velocity        uet   :  0.28666E-01 0.61688E-01
   Friction velocity        uk    :  0.28666E-01 0.61688E-01
   Dimensionless distance   yplus :  0.10809E+04 0.44662E+04
   ------------------------------------------------------   
   Nb of reversal of the velocity at the wall   :          0
   Nb of faces within the viscous sub-layer     :          0
   Total number of wall faces                   :        416
------------------------------------------------------------



   ** INFORMATION ON CONVERGENCE
      --------------------------
---------------------------------------------------------------
   Variable    Rhs norm      N_iter  Norm. residual      derive
---------------------------------------------------------------
c  Pressure     0.55902E+02     484   0.90984E-08   0.73068E+00 
c  VelocityX    0.71333E+04       8   0.23873E-08   0.49052E-01 
c  VelocityY    0.92680E+03       8   0.37305E-08   0.96074E-02 
c  VelocityZ    0.89344E+03       8   0.32419E-08   0.11305E-01 
c  TempC        0.36095E+06       7   0.37751E-08   0.58985E-08 
---------------------------------------------------------------
  
  

   ** INFORMATION ON VARIABLES
      ------------------------
---------------------------------------------------------------
   Variable      Min. value    Max. value   Min clip   Max clip
---------------------------------------------------------------
v  Pressure    -0.13770E+02   0.35485E+01         --         -- 
v  VelocityX    0.26802E+00   0.40750E+01         --         -- 
v  VelocityY   -0.16181E+01   0.13112E+01         --         -- 
v  VelocityZ   -0.11984E+01   0.15635E+01         --         -- 
v  TempC        0.50000E+02   0.50001E+02        250          0 
v  CourantNb    0.42915E-01   0.22896E+00          0          0 
v  FourierNb    0.96514E-06   0.86499E-05          0          0 
v  total_pressu 0.10131E+06   0.10133E+06          0          0 
---------------------------------------------------------------
  
  

   ** INFORMATION ON CLIPPINGS
      ------------------------
---------------------------------------------------------------
   Variable    Min wo clips  Max wo clips   Min clip   Max clip
---------------------------------------------------------------
a  TempC        0.44828E+02   0.50001E+02        250          0 
---------------------------------------------------------------
  
  

   ** INFORMATION ON THE TIME STEP
      -----------------------------
---------------------------------------------------------------
Criterion    Value      at         xc           yc           zc
---------------------------------------------------------------
Courant min  0.42915E-01  0.31657E+02 -0.27793E+01 -0.63690E+01  
Courant max  0.22896E+00  0.66933E+00 -0.57200E+00  0.50131E+01  
Fourier min  0.96514E-06  0.97764E+01 -0.12977E+01 -0.92083E+00  
Fourier max  0.86499E-05  0.20454E+01  0.26132E+01 -0.88572E+01  
Cou_Fou min  0.42917E-01  0.31657E+02 -0.27793E+01 -0.63690E+01  
Cou_Fou max  0.22897E+00  0.66933E+00 -0.57200E+00  0.50131E+01  
---------------------------------------------------------------
  
  

 CPU TIME FOR THE TIME STEP                3:        0.24002E-01

===============================================================


 INSTANT    0.400000000E+00   TIME STEP NUMBER               4
 ============================================================= 




   ** BOUNDARY MASS FLOW INFORMATION
      ------------------------------

---------------------------------------------------------------
Boundary type          Code    Nb faces           Mass flow
---------------------------------------------------------------
Inlet                     2          31        -0.338981793E+03
Smooth wall               5         416         0.169721008E-14
Rough wall                6           0         0.000000000E+00
Symmetry                  4           0         0.000000000E+00
Free outlet               3          31         0.338981795E+03
Undefined                 1           0         0.000000000E+00
---------------------------------------------------------------


   ** BOUNDARY CONDITIONS FOR SMOOTH WALLS
   ---------------------------------------
------------------------------------------------------------
                                         Minimum     Maximum
------------------------------------------------------------
   Rel velocity at the wall uiptn :  0.48108E+00 0.10984E+01
   Friction velocity        uet   :  0.25966E-01 0.53769E-01
   Friction velocity        uk    :  0.25966E-01 0.53769E-01
   Dimensionless distance   yplus :  0.98730E+03 0.44468E+04
   ------------------------------------------------------   
   Nb of reversal of the velocity at the wall   :          0
   Nb of faces within the viscous sub-layer     :          0
   Total number of wall faces                   :        416
------------------------------------------------------------



   ** INFORMATION ON CONVERGENCE
      --------------------------
---------------------------------------------------------------
   Variable    Rhs norm      N_iter  Norm. residual      derive
---------------------------------------------------------------
c  Pressure     0.28197E+02     442   0.66987E-08   0.51740E+00 
c  VelocityX    0.73694E+04       8   0.11545E-08   0.22892E-01 
c  VelocityY    0.76919E+03       8   0.22405E-08   0.47907E-02 
c  VelocityZ    0.73921E+03       8   0.25991E-08   0.58594E-02 
c  TempC        0.36095E+06       7   0.37943E-08   0.51555E-08 
---------------------------------------------------------------
  
  

   ** INFORMATION ON VARIABLES
      ------------------------
---------------------------------------------------------------
   Variable      Min. value    Max. value   Min clip   Max clip
---------------------------------------------------------------
v  Pressure    -0.56043E+01   0.79108E+01         --         -- 
v  VelocityX    0.31208E+00   0.38573E+01         --         -- 
v  VelocityY   -0.15303E+01   0.12525E+01         --         -- 
v  VelocityZ   -0.11676E+01   0.13093E+01         --         -- 
v  TempC        0.50000E+02   0.50001E+02        246          0 
v  CourantNb    0.42724E-01   0.23034E+00          0          0 
v  FourierNb    0.96514E-06   0.86499E-05          0          0 
v  total_pressu 0.10132E+06   0.10133E+06          0          0 
---------------------------------------------------------------
  
  

   ** INFORMATION ON CLIPPINGS
      ------------------------
---------------------------------------------------------------
   Variable    Min wo clips  Max wo clips   Min clip   Max clip
---------------------------------------------------------------
a  TempC        0.44828E+02   0.50001E+02        246          0 
---------------------------------------------------------------
  
  

   ** INFORMATION ON THE TIME STEP
      -----------------------------
---------------------------------------------------------------
Criterion    Value      at         xc           yc           zc
---------------------------------------------------------------
Courant min  0.42724E-01  0.30876E+02 -0.58542E+00 -0.52453E+01  
Courant max  0.23034E+00  0.66933E+00 -0.57200E+00  0.50131E+01  
Fourier min  0.96514E-06  0.97764E+01 -0.12977E+01 -0.92083E+00  
Fourier max  0.86499E-05  0.20454E+01  0.26132E+01 -0.88572E+01  
Cou_Fou min  0.42725E-01  0.30876E+02 -0.58542E+00 -0.52453E+01  
Cou_Fou max  0.23035E+00  0.66933E+00 -0.57200E+00  0.50131E+01  
---------------------------------------------------------------
  
  

 CPU TIME FOR THE TIME STEP                4:        0.20001E-01

===============================================================


 INSTANT    0.500000000E+00   TIME STEP NUMBER               5
 ============================================================= 




   ** BOUNDARY MASS FLOW INFORMATION
      ------------------------------

---------------------------------------------------------------
Boundary type          Code    Nb faces           Mass flow
---------------------------------------------------------------
Inlet                     2          31        -0.338981793E+03
Smooth wall               5         416         0.253080570E-14
Rough wall                6           0         0.000000000E+00
Symmetry                  4           0         0.000000000E+00
Free outlet               3          31         0.338981794E+03
Undefined                 1           0         0.000000000E+00
---------------------------------------------------------------


   ** BOUNDARY CONDITIONS FOR SMOOTH WALLS
   ---------------------------------------
------------------------------------------------------------
                                         Minimum     Maximum
------------------------------------------------------------
   Rel velocity at the wall uiptn :  0.45597E+00 0.10480E+01
   Friction velocity        uet   :  0.24762E-01 0.52272E-01
   Friction velocity        uk    :  0.24762E-01 0.52272E-01
   Dimensionless distance   yplus :  0.93499E+03 0.45107E+04
   ------------------------------------------------------   
   Nb of reversal of the velocity at the wall   :          0
   Nb of faces within the viscous sub-layer     :          0
   Total number of wall faces                   :        416
------------------------------------------------------------



   ** INFORMATION ON CONVERGENCE
      --------------------------
---------------------------------------------------------------
   Variable    Rhs norm      N_iter  Norm. residual      derive
---------------------------------------------------------------
c  Pressure     0.17133E+02     402   0.86102E-08   0.41245E+00 
c  VelocityX    0.73915E+04       8   0.73795E-09   0.13766E-01 
c  VelocityY    0.71942E+03       8   0.15191E-08   0.28478E-02 
c  VelocityZ    0.69209E+03       8   0.19646E-08   0.34014E-02 
c  TempC        0.36095E+06       7   0.38997E-08   0.45717E-08 
---------------------------------------------------------------
  
  

   ** INFORMATION ON VARIABLES
      ------------------------
---------------------------------------------------------------
   Variable      Min. value    Max. value   Min clip   Max clip
---------------------------------------------------------------
v  Pressure    -0.51282E+01   0.49860E+01         --         -- 
v  VelocityX    0.33070E+00   0.36637E+01         --         -- 
v  VelocityY   -0.14346E+01   0.12673E+01         --         -- 
v  VelocityZ   -0.11261E+01   0.10324E+01         --         -- 
v  TempC        0.50000E+02   0.50001E+02        243          0 
v  CourantNb    0.42553E-01   0.22717E+00          0          0 
v  FourierNb    0.96514E-06   0.86499E-05          0          0 
v  total_pressu 0.10132E+06   0.10133E+06          0          0 
---------------------------------------------------------------
  
  

   ** INFORMATION ON CLIPPINGS
      ------------------------
---------------------------------------------------------------
   Variable    Min wo clips  Max wo clips   Min clip   Max clip
---------------------------------------------------------------
a  TempC        0.44828E+02   0.50001E+02        243          0 
---------------------------------------------------------------
  
  

   ** INFORMATION ON THE TIME STEP
      -----------------------------
---------------------------------------------------------------
Criterion    Value      at         xc           yc           zc
---------------------------------------------------------------
Courant min  0.42553E-01  0.30876E+02 -0.58542E+00 -0.52453E+01  
Courant max  0.22717E+00  0.66933E+00 -0.57200E+00  0.50131E+01  
Fourier min  0.96514E-06  0.97764E+01 -0.12977E+01 -0.92083E+00  
Fourier max  0.86499E-05  0.20454E+01  0.26132E+01 -0.88572E+01  
Cou_Fou min  0.42554E-01  0.30876E+02 -0.58542E+00 -0.52453E+01  
Cou_Fou max  0.22717E+00  0.66933E+00 -0.57200E+00  0.50131E+01  
---------------------------------------------------------------
  
  

 CPU TIME FOR THE TIME STEP                5:        0.24002E-01

===============================================================


 INSTANT    0.600000000E+00   TIME STEP NUMBER               6
 ============================================================= 




   ** BOUNDARY MASS FLOW INFORMATION
      ------------------------------

---------------------------------------------------------------
Boundary type          Code    Nb faces           Mass flow
---------------------------------------------------------------
Inlet                     2          31        -0.338981793E+03
Smooth wall               5         416         0.181961651E-14
Rough wall                6           0         0.000000000E+00
Symmetry                  4           0         0.000000000E+00
Free outlet               3          31         0.338981790E+03
Undefined                 1           0         0.000000000E+00
---------------------------------------------------------------


   ** BOUNDARY CONDITIONS FOR SMOOTH WALLS
   ---------------------------------------
------------------------------------------------------------
                                         Minimum     Maximum
------------------------------------------------------------
   Rel velocity at the wall uiptn :  0.43787E+00 0.10827E+01
   Friction velocity        uet   :  0.23889E-01 0.53866E-01
   Friction velocity        uk    :  0.23889E-01 0.53866E-01
   Dimensionless distance   yplus :  0.88530E+03 0.45346E+04
   ------------------------------------------------------   
   Nb of reversal of the velocity at the wall   :          0
   Nb of faces within the viscous sub-layer     :          0
   Total number of wall faces                   :        416
------------------------------------------------------------



   ** INFORMATION ON CONVERGENCE
      --------------------------
---------------------------------------------------------------
   Variable    Rhs norm      N_iter  Norm. residual      derive
---------------------------------------------------------------
c  Pressure     0.11745E+02     404   0.90351E-08   0.35441E+00 
c  VelocityX    0.73514E+04       7   0.88870E-08   0.92756E-02 
c  VelocityY    0.68694E+03       8   0.13257E-08   0.19336E-02 
c  VelocityZ    0.66440E+03       8   0.17094E-08   0.21911E-02 
c  TempC        0.36095E+06       7   0.40023E-08   0.14643E-07 
---------------------------------------------------------------
  
  

   ** INFORMATION ON VARIABLES
      ------------------------
---------------------------------------------------------------
   Variable      Min. value    Max. value   Min clip   Max clip
---------------------------------------------------------------
v  Pressure    -0.48758E+01   0.30565E+01         --         -- 
v  VelocityX    0.36231E+00   0.34886E+01         --         -- 
v  VelocityY   -0.13336E+01   0.12531E+01         --         -- 
v  VelocityZ   -0.10804E+01   0.10791E+01         --         -- 
v  TempC        0.50000E+02   0.50002E+02        240          0 
v  CourantNb    0.42403E-01   0.22610E+00          0          0 
v  FourierNb    0.96514E-06   0.84507E-05          0          0 
v  total_pressu 0.10132E+06   0.10133E+06          0          0 
---------------------------------------------------------------
  
  

   ** INFORMATION ON CLIPPINGS
      ------------------------
---------------------------------------------------------------
   Variable    Min wo clips  Max wo clips   Min clip   Max clip
---------------------------------------------------------------
a  TempC        0.44828E+02   0.50002E+02        240          0 
---------------------------------------------------------------
  
  

   ** INFORMATION ON THE TIME STEP
      -----------------------------
---------------------------------------------------------------
Criterion    Value      at         xc           yc           zc
---------------------------------------------------------------
Courant min  0.42403E-01  0.30876E+02 -0.58542E+00 -0.52453E+01  
Courant max  0.22610E+00  0.66933E+00 -0.57200E+00  0.50131E+01  
Fourier min  0.96514E-06  0.97764E+01 -0.12977E+01 -0.92083E+00  
Fourier max  0.84507E-05  0.21872E+01 -0.79475E+01  0.27415E+01  
Cou_Fou min  0.42405E-01  0.30876E+02 -0.58542E+00 -0.52453E+01  
Cou_Fou max  0.22611E+00  0.66933E+00 -0.57200E+00  0.50131E+01  
---------------------------------------------------------------
  
  

 CPU TIME FOR THE TIME STEP                6:        0.20001E-01

===============================================================


 INSTANT    0.700000000E+00   TIME STEP NUMBER               7
 ============================================================= 




   ** BOUNDARY MASS FLOW INFORMATION
      ------------------------------

---------------------------------------------------------------
Boundary type          Code    Nb faces           Mass flow
---------------------------------------------------------------
Inlet                     2          31        -0.338981793E+03
Smooth wall               5         416         0.217463851E-14
Rough wall                6           0         0.000000000E+00
Symmetry                  4           0         0.000000000E+00
Free outlet               3          31         0.338981792E+03
Undefined                 1           0         0.000000000E+00
---------------------------------------------------------------


   ** BOUNDARY CONDITIONS FOR SMOOTH WALLS
   ---------------------------------------
------------------------------------------------------------
                                         Minimum     Maximum
------------------------------------------------------------
   Rel velocity at the wall uiptn :  0.41940E+00 0.11105E+01
   Friction velocity        uet   :  0.23258E-01 0.55100E-01
   Friction velocity        uk    :  0.23258E-01 0.55100E-01
   Dimensionless distance   yplus :  0.83440E+03 0.45415E+04
   ------------------------------------------------------   
   Nb of reversal of the velocity at the wall   :          0
   Nb of faces within the viscous sub-layer     :          0
   Total number of wall faces                   :        416
------------------------------------------------------------



   ** INFORMATION ON CONVERGENCE
      --------------------------
---------------------------------------------------------------
   Variable    Rhs norm      N_iter  Norm. residual      derive
---------------------------------------------------------------
c  Pressure     0.83067E+01     378   0.89186E-08   0.30169E+00 
c  VelocityX    0.73188E+04       7   0.75708E-08   0.66570E-02 
c  VelocityY    0.65838E+03       8   0.12711E-08   0.14643E-02 
c  VelocityZ    0.64089E+03       8   0.15258E-08   0.15230E-02 
c  TempC        0.36095E+06       7   0.40979E-08   0.10986E-06 
---------------------------------------------------------------
  
  

   ** INFORMATION ON VARIABLES
      ------------------------
---------------------------------------------------------------
   Variable      Min. value    Max. value   Min clip   Max clip
---------------------------------------------------------------
v  Pressure    -0.44506E+01   0.19140E+01         --         -- 
v  VelocityX    0.37917E+00   0.33283E+01         --         -- 
v  VelocityY   -0.12301E+01   0.12226E+01         --         -- 
v  VelocityZ   -0.10356E+01   0.10996E+01         --         -- 
v  TempC        0.50000E+02   0.50004E+02        234          0 
v  CourantNb    0.42295E-01   0.22716E+00          0          0 
v  FourierNb    0.96514E-06   0.84507E-05          0          0 
v  total_pressu 0.10132E+06   0.10133E+06          0          0 
---------------------------------------------------------------
  
  

   ** INFORMATION ON CLIPPINGS
      ------------------------
---------------------------------------------------------------
   Variable    Min wo clips  Max wo clips   Min clip   Max clip
---------------------------------------------------------------
a  TempC        0.44828E+02   0.50004E+02        234          0 
---------------------------------------------------------------
  
  

   ** INFORMATION ON THE TIME STEP
      -----------------------------
---------------------------------------------------------------
Criterion    Value      at         xc           yc           zc
---------------------------------------------------------------
Courant min  0.42295E-01  0.30876E+02 -0.58542E+00 -0.52453E+01  
Courant max  0.22716E+00  0.14405E+01 -0.74632E+00  0.15056E+01  
Fourier min  0.96514E-06  0.97764E+01 -0.12977E+01 -0.92083E+00  
Fourier max  0.84507E-05  0.21872E+01 -0.79475E+01  0.27415E+01  
Cou_Fou min  0.42296E-01  0.30876E+02 -0.58542E+00 -0.52453E+01  
Cou_Fou max  0.22716E+00  0.14405E+01 -0.74632E+00  0.15056E+01  
---------------------------------------------------------------
  
  

 CPU TIME FOR THE TIME STEP                7:        0.20001E-01

===============================================================


 INSTANT    0.800000000E+00   TIME STEP NUMBER               8
 ============================================================= 




   ** BOUNDARY MASS FLOW INFORMATION
      ------------------------------

---------------------------------------------------------------
Boundary type          Code    Nb faces           Mass flow
---------------------------------------------------------------
Inlet                     2          31        -0.338981793E+03
Smooth wall               5         416         0.517741774E-14
Rough wall                6           0         0.000000000E+00
Symmetry                  4           0         0.000000000E+00
Free outlet               3          31         0.338981792E+03
Undefined                 1           0         0.000000000E+00
---------------------------------------------------------------


   ** BOUNDARY CONDITIONS FOR SMOOTH WALLS
   ---------------------------------------
------------------------------------------------------------
                                         Minimum     Maximum
------------------------------------------------------------
   Rel velocity at the wall uiptn :  0.39240E+00 0.11287E+01
   Friction velocity        uet   :  0.22417E-01 0.55910E-01
   Friction velocity        uk    :  0.22417E-01 0.55910E-01
   Dimensionless distance   yplus :  0.78692E+03 0.45411E+04
   ------------------------------------------------------   
   Nb of reversal of the velocity at the wall   :          0
   Nb of faces within the viscous sub-layer     :          0
   Total number of wall faces                   :        416
------------------------------------------------------------



   ** INFORMATION ON CONVERGENCE
      --------------------------
---------------------------------------------------------------
   Variable    Rhs norm      N_iter  Norm. residual      derive
---------------------------------------------------------------
c  Pressure     0.61566E+01     357   0.70623E-08   0.25850E+00 
c  VelocityX    0.72934E+04       7   0.66505E-08   0.49573E-02 
c  VelocityY    0.63223E+03       8   0.12417E-08   0.11731E-02 
c  VelocityZ    0.61764E+03       8   0.13793E-08   0.11332E-02 
c  TempC        0.36095E+06       7   0.41732E-08   0.12991E-06 
---------------------------------------------------------------
  
  

   ** INFORMATION ON VARIABLES
      ------------------------
---------------------------------------------------------------
   Variable      Min. value    Max. value   Min clip   Max clip
---------------------------------------------------------------
v  Pressure    -0.40351E+01   0.12766E+01         --         -- 
v  VelocityX    0.38857E+00   0.31806E+01         --         -- 
v  VelocityY   -0.11266E+01   0.11828E+01         --         -- 
v  VelocityZ   -0.98773E+00   0.10912E+01         --         -- 
v  TempC        0.50000E+02   0.50008E+02        230          0 
v  CourantNb    0.42320E-01   0.22887E+00          0          0 
v  FourierNb    0.96514E-06   0.84507E-05          0          0 
v  total_pressu 0.10132E+06   0.10133E+06          0          0 
---------------------------------------------------------------
  
  

   ** INFORMATION ON CLIPPINGS
      ------------------------
---------------------------------------------------------------
   Variable    Min wo clips  Max wo clips   Min clip   Max clip
---------------------------------------------------------------
a  TempC        0.44828E+02   0.50008E+02        230          0 
---------------------------------------------------------------
  
  

   ** INFORMATION ON THE TIME STEP
      -----------------------------
---------------------------------------------------------------
Criterion    Value      at         xc           yc           zc
---------------------------------------------------------------
Courant min  0.42320E-01  0.30876E+02 -0.58542E+00 -0.52453E+01  
Courant max  0.22887E+00  0.14405E+01 -0.74632E+00  0.15056E+01  
Fourier min  0.96514E-06  0.97764E+01 -0.12977E+01 -0.92083E+00  
Fourier max  0.84507E-05  0.21872E+01 -0.79475E+01  0.27415E+01  
Cou_Fou min  0.42321E-01  0.30876E+02 -0.58542E+00 -0.52453E+01  
Cou_Fou max  0.22887E+00  0.14405E+01 -0.74632E+00  0.15056E+01  
---------------------------------------------------------------
  
  

 CPU TIME FOR THE TIME STEP                8:        0.20001E-01

===============================================================


 INSTANT    0.900000000E+00   TIME STEP NUMBER               9
 ============================================================= 




   ** BOUNDARY MASS FLOW INFORMATION
      ------------------------------

---------------------------------------------------------------
Boundary type          Code    Nb faces           Mass flow
---------------------------------------------------------------
Inlet                     2          31        -0.338981793E+03
Smooth wall               5         416         0.268491826E-14
Rough wall                6           0         0.000000000E+00
Symmetry                  4           0         0.000000000E+00
Free outlet               3          31         0.338981794E+03
Undefined                 1           0         0.000000000E+00
---------------------------------------------------------------


   ** BOUNDARY CONDITIONS FOR SMOOTH WALLS
   ---------------------------------------
------------------------------------------------------------
                                         Minimum     Maximum
------------------------------------------------------------
   Rel velocity at the wall uiptn :  0.36708E+00 0.11404E+01
   Friction velocity        uet   :  0.21139E-01 0.56427E-01
   Friction velocity        uk    :  0.21139E-01 0.56427E-01
   Dimensionless distance   yplus :  0.74206E+03 0.45351E+04
   ------------------------------------------------------   
   Nb of reversal of the velocity at the wall   :          0
   Nb of faces within the viscous sub-layer     :          0
   Total number of wall faces                   :        416
------------------------------------------------------------


@                                                            
@@@@@@@@@@@@@@@@@@@@@@@@@@@@@@@@@@@@@@@@@@@@@@@@@@@@@@@@@@@@@
@                                                            
@ @@ WARNING: MESH NOT ENOUGH REFINED AT THE WALL            
@    ========                                                
@    The mesh does not seem to be enough refined at the wall 
@      to be able to run a laminar simulation.               
@                                                            
@    The last time step at which too large values for the    
@      dimensionless distance to the wall (yplus) have been  
@      observed is the time step          9
@                                                            
@    The minimum value for yplus must be lower than the      
@      limit value YPLULI =    0.23810E+01
@                                                            
@    Have a look at the distribution of yplus at the wall    
@      (with EnSight for example) to conclude on the way     
@      the results quality might be affected.                
@                                                            
@    This warning is only printed at the first two           
@      occurences of the problem and at the last time step   
@      of the calculation. The vanishing of the message does 
@      not necessarily mean the vanishing of the problem.    
@                                                            
@@@@@@@@@@@@@@@@@@@@@@@@@@@@@@@@@@@@@@@@@@@@@@@@@@@@@@@@@@@@@
@                                                            


   ** INFORMATION ON CONVERGENCE
      --------------------------
---------------------------------------------------------------
   Variable    Rhs norm      N_iter  Norm. residual      derive
---------------------------------------------------------------
c  Pressure     0.47323E+01     346   0.96993E-08   0.22193E+00 
c  VelocityX    0.72719E+04       7   0.58949E-08   0.37732E-02 
c  VelocityY    0.60691E+03       8   0.12102E-08   0.95904E-03 
c  VelocityZ    0.59396E+03       8   0.12846E-08   0.89177E-03 
c  TempC        0.36095E+06       7   0.42306E-08   0.13752E-06 
---------------------------------------------------------------
  
  

   ** INFORMATION ON VARIABLES
      ------------------------
---------------------------------------------------------------
   Variable      Min. value    Max. value   Min clip   Max clip
---------------------------------------------------------------
v  Pressure    -0.36382E+01   0.10056E+01         --         -- 
v  VelocityX    0.40438E+00   0.30433E+01         --         -- 
v  VelocityY   -0.10267E+01   0.11373E+01         --         -- 
v  VelocityZ   -0.93920E+00   0.10675E+01         --         -- 
v  TempC        0.50000E+02   0.50011E+02        229          0 
v  CourantNb    0.42364E-01   0.22917E+00          0          0 
v  FourierNb    0.96514E-06   0.86499E-05          0          0 
v  total_pressu 0.10132E+06   0.10133E+06          0          0 
---------------------------------------------------------------
  
  

   ** INFORMATION ON CLIPPINGS
      ------------------------
---------------------------------------------------------------
   Variable    Min wo clips  Max wo clips   Min clip   Max clip
---------------------------------------------------------------
a  TempC        0.44828E+02   0.50011E+02        229          0 
---------------------------------------------------------------
  
  

   ** INFORMATION ON THE TIME STEP
      -----------------------------
---------------------------------------------------------------
Criterion    Value      at         xc           yc           zc
---------------------------------------------------------------
Courant min  0.42364E-01  0.30876E+02 -0.58542E+00 -0.52453E+01  
Courant max  0.22917E+00  0.14405E+01 -0.74632E+00  0.15056E+01  
Fourier min  0.96514E-06  0.97764E+01 -0.12977E+01 -0.92083E+00  
Fourier max  0.86499E-05  0.20454E+01  0.26132E+01 -0.88572E+01  
Cou_Fou min  0.42365E-01  0.30876E+02 -0.58542E+00 -0.52453E+01  
Cou_Fou max  0.22918E+00  0.14405E+01 -0.74632E+00  0.15056E+01  
---------------------------------------------------------------
  
  

 CPU TIME FOR THE TIME STEP                9:        0.16001E-01

===============================================================


 INSTANT    0.100000000E+01   TIME STEP NUMBER              10
 ============================================================= 




   ** BOUNDARY MASS FLOW INFORMATION
      ------------------------------

---------------------------------------------------------------
Boundary type          Code    Nb faces           Mass flow
---------------------------------------------------------------
Inlet                     2          31        -0.338981793E+03
Smooth wall               5         416         0.298047177E-14
Rough wall                6           0         0.000000000E+00
Symmetry                  4           0         0.000000000E+00
Free outlet               3          31         0.338981794E+03
Undefined                 1           0         0.000000000E+00
---------------------------------------------------------------


   ** BOUNDARY CONDITIONS FOR SMOOTH WALLS
   ---------------------------------------
------------------------------------------------------------
                                         Minimum     Maximum
------------------------------------------------------------
   Rel velocity at the wall uiptn :  0.34430E+00 0.11461E+01
   Friction velocity        uet   :  0.19981E-01 0.56677E-01
   Friction velocity        uk    :  0.19981E-01 0.56677E-01
   Dimensionless distance   yplus :  0.70142E+03 0.45263E+04
   ------------------------------------------------------   
   Nb of reversal of the velocity at the wall   :          0
   Nb of faces within the viscous sub-layer     :          0
   Total number of wall faces                   :        416
------------------------------------------------------------


@                                                            
@@@@@@@@@@@@@@@@@@@@@@@@@@@@@@@@@@@@@@@@@@@@@@@@@@@@@@@@@@@@@
@                                                            
@ @@ WARNING: MESH NOT ENOUGH REFINED AT THE WALL            
@    ========                                                
@    The mesh does not seem to be enough refined at the wall 
@      to be able to run a laminar simulation.               
@                                                            
@    The last time step at which too large values for the    
@      dimensionless distance to the wall (yplus) have been  
@      observed is the time step         10
@                                                            
@    The minimum value for yplus must be lower than the      
@      limit value YPLULI =    0.23810E+01
@                                                            
@    Have a look at the distribution of yplus at the wall    
@      (with EnSight for example) to conclude on the way     
@      the results quality might be affected.                
@                                                            
@    This warning is only printed at the first two           
@      occurences of the problem and at the last time step   
@      of the calculation. The vanishing of the message does 
@      not necessarily mean the vanishing of the problem.    
@                                                            
@@@@@@@@@@@@@@@@@@@@@@@@@@@@@@@@@@@@@@@@@@@@@@@@@@@@@@@@@@@@@
@                                                            



 Write final restart files
   checkpoint at iteration         10, Physical time    0.10000E+01


   ** Writing the main restart file
      -----------------------------

 Start writing
   End writing the dimensions                           
   End writing the options                              
   End writing the main variables                       
 End writing

   ** Writing the auxilliary restart file
      -----------------------------------

 Start writing
   End writing the dimensions and options               
   End writing the physical properties                  
   End writing the time step                            
   End writing the mass fluxes                          
   End writing the boundary conditions                  
 End writing


 CPU time for restart files:    0.00000E+00



   ** INFORMATION ON CONVERGENCE
      --------------------------
---------------------------------------------------------------
   Variable    Rhs norm      N_iter  Norm. residual      derive
---------------------------------------------------------------
c  Pressure     0.37211E+01     341   0.98588E-08   0.18976E+00 
c  VelocityX    0.72533E+04       7   0.52400E-08   0.29153E-02 
c  VelocityY    0.58321E+03       8   0.11800E-08   0.80080E-03 
c  VelocityZ    0.57033E+03       8   0.11805E-08   0.72561E-03 
c  TempC        0.36095E+06       7   0.42706E-08   0.13601E-06 
---------------------------------------------------------------
  
  

   ** INFORMATION ON VARIABLES
      ------------------------
---------------------------------------------------------------
   Variable      Min. value    Max. value   Min clip   Max clip
---------------------------------------------------------------
v  Pressure    -0.32940E+01   0.80831E+00         --         -- 
v  VelocityX    0.39166E+00   0.29154E+01         --         -- 
v  VelocityY   -0.97028E+00   0.10875E+01         --         -- 
v  VelocityZ   -0.89112E+00   0.10331E+01         --         -- 
v  TempC        0.50000E+02   0.50014E+02        229          0 
v  CourantNb    0.42400E-01   0.22842E+00          0          0 
v  FourierNb    0.96514E-06   0.84507E-05          0          0 
v  total_pressu 0.10132E+06   0.10133E+06          0          0 
---------------------------------------------------------------
  
  

   ** INFORMATION ON CLIPPINGS
      ------------------------
---------------------------------------------------------------
   Variable    Min wo clips  Max wo clips   Min clip   Max clip
---------------------------------------------------------------
a  TempC        0.44828E+02   0.50014E+02        229          0 
---------------------------------------------------------------
  
  

   ** INFORMATION ON THE TIME STEP
      -----------------------------
---------------------------------------------------------------
Criterion    Value      at         xc           yc           zc
---------------------------------------------------------------
Courant min  0.42400E-01  0.30876E+02 -0.58542E+00 -0.52453E+01  
Courant max  0.22842E+00  0.14405E+01 -0.74632E+00  0.15056E+01  
Fourier min  0.96514E-06  0.97764E+01 -0.12977E+01 -0.92083E+00  
Fourier max  0.84507E-05  0.21872E+01 -0.79475E+01  0.27415E+01  
Cou_Fou min  0.42401E-01  0.30876E+02 -0.58542E+00 -0.52453E+01  
Cou_Fou max  0.22843E+00  0.14405E+01 -0.74632E+00  0.15056E+01  
---------------------------------------------------------------
  
  

 CPU TIME FOR THE TIME STEP               10:        0.24002E-01

===============================================================



===============================================================



                 FINAL STAGE OF THE CALCULATION              
                 ==============================              


 =========================================================== 




   ** CPU TIME FOR FINAL WRITING:    0.00000E+00
      ---------------------------                           



 =========================================================== 




                      END OF CALCULATION                     
                      ==================                     


===============================================================

Summary of multigrid for "Pressure":

  Smoother: Conjugate gradient
  Coarsest level solver:       Conjugate gradient
  Number of constructions:          10
  Number of resolutions:            20
  Number of levels:
    minimum:                        4
    maximum:                        4
    mean:                           4
  Coarse grid size (n cells):
    minimum:                        14
    maximum:                        14
    mean:                           14
  Coarse grid ranks:
    minimum:                        2
    maximum:                        2
  Number of cycles:
    minimum:                        8
    maximum:                        15
    mean:                           10
  Number of iterations:
    on finest grid:
      minimum:                      83
      maximum:                      159
      mean:                         113
    on coarsest grid:
      minimum:                      12
      maximum:                      88
      mean:                         44
    total on grids:
      minimum:                      898
      maximum:                      2068
      mean:                         1376
  Associated times (construction, resolution)
    total elapsed:                         0.004         0.123
    Min local total CPU time:              0.000         0.116
    Max local total CPU time:              0.008         0.116

Summary of resolutions for TempC (Jacobi):

  Number of calls:                  10
  Minimum number of iterations:     7
  Maximum number of iterations:     7
  Mean number of iterations:        7
  Total elapsed time:                      0.001
  Min local total CPU time:                0.000
  Max local total CPU time:                0.004

Summary of resolutions for VelocityX (Jacobi):

  Number of calls:                  10
  Minimum number of iterations:     2
  Maximum number of iterations:     8
  Mean number of iterations:        6
  Total elapsed time:                      0.001
  Min local total CPU time:                0.000
  Max local total CPU time:                0.000

Summary of resolutions for VelocityY (Jacobi):

  Number of calls:                  10
  Minimum number of iterations:     3
  Maximum number of iterations:     8
  Mean number of iterations:        7
  Total elapsed time:                      0.001
  Min local total CPU time:                0.000
  Max local total CPU time:                0.000

Summary of resolutions for VelocityZ (Jacobi):

  Number of calls:                  10
  Minimum number of iterations:     3
  Maximum number of iterations:     8
  Mean number of iterations:        7
  Total elapsed time:                      0.001
  Min local total CPU time:                0.000
  Max local total CPU time:                0.000

Summary of gradient computations pour "Var. 0" (Iterative reconstruction):

  Number of calls:                  10
  Total elapsed time:                      0.003
  Min local total CPU time:                0.004
  Max local total CPU time:                0.004

Summary of gradient computations pour "Var. 1" (Iterative reconstruction):

  Number of calls:                  60
  Total elapsed time:                      0.014
  Min local total CPU time:                0.012
  Max local total CPU time:                0.020

Summary of gradient computations pour "Var. 2" (Iterative reconstruction):

  Number of calls:                  39
  Total elapsed time:                      0.010
  Min local total CPU time:                0.004
  Max local total CPU time:                0.012

Summary of gradient computations pour "Var. 3" (Iterative reconstruction):

  Number of calls:                  39
  Total elapsed time:                      0.011
  Min local total CPU time:                0.008
  Max local total CPU time:                0.012

Summary of gradient computations pour "Var. 4" (Iterative reconstruction):

  Number of calls:                  39
  Total elapsed time:                      0.010
  Min local total CPU time:                0.004
  Max local total CPU time:                0.020

Summary of gradient computations pour "Var. 5" (Iterative reconstruction):

  Number of calls:                  11
  Total elapsed time:                      0.003
  Min local total CPU time:                0.000
  Max local total CPU time:                0.004

 Destroying structures and ending computation

Mesh entity selections by criteria statistics:
  entity type     evaluations  elapsed time
  -----------------------------------------
  cells                     2       0.00010
  interior faces            0       0.00000
  boundary faces           63       0.00009

Writing of "empty_cylinder_simple" (EnSight Gold) summary:

  CPU time for meshes:                     0.000
  CPU time for variables:                  0.004

  Elapsed time for meshes:                 0.001
  Elapsed time for variables:              0.069

Code_Saturne IO files read:

  mesh_input
    global:      0.00055 s,        1.881 KiB
    local:       0.00014 s,       59.426 KiB
    open:        0.00207 s, 2 open(s)

Code_Saturne IO files written:

  checkpoint/auxiliary
    global:      0.00041 s,        3.875 KiB
    local:       0.00027 s,       54.578 KiB
    open:        0.00087 s, 1 open(s)
  checkpoint/main
    global:      0.00021 s,        2.500 KiB
    local:       0.00012 s,       33.750 KiB
    open:        0.00058 s, 1 open(s)

Calculation time summary:

  User CPU time:              0.196 s
  System CPU time:            0.052 s
  Total CPU time:             0.560 s

  Elapsed time:               0.300 s
  CPU / elapsed time          0.826

Memory use summary:

  Total memory used:                             501.824 MiB
                             local minimum:      231.152 MiB  (rank 1)
                             local maximum:      270.672 MiB  (rank 0)
  Theoretical instrumented dynamic memory:       625.000 KiB
                             local minimum:      312.000 KiB  (rank 1)
                             local maximum:      313.000 KiB  (rank 0)

