command: 
 /usr/lib/code_saturne/cs_solver --param betzlimit_tunnelbasic.xml --mpi

***************************************************************

                                  (R)
                      Code_Saturne

                      Version 2.1.0


  Copyright (C) 1998-2011 EDF S.A., France

  build Thu 26 Jan 2012 08:44:04 PM EST
  MPI version 2.1 (Open MPI 1.4.3)


  The Code_Saturne CFD tool  is free software;
  you can redistribute it and/or modify it under the terms
  of the GNU General Public License as published by the
  Free Software Foundation; either version 2 of the License,
  or (at your option) any later version.

  The Code_Saturne CFD tool is distributed in the hope that
  it will be useful, but WITHOUT ANY WARRANTY; without even
  the implied warranty of MERCHANTABILITY or FITNESS FOR A
  PARTICULAR PURPOSE.  See the GNU General Public License
  for more details.

***************************************************************


Local case configuration:

  Date:              Tue 03 Dec 2013 08:01:11 PM EST
  System:            Linux 3.5.0-43-generic
  Machine:           studio-ub
  Processor:         Intel(R) Core(TM)2 Duo CPU     P8700  @ 2.53GHz
  Memory:            7951 MB
  User:              vance (Vance Turnewitsch)
  Directory:         /home/vance/Downloads/Capstone/MCCapstone13-14/CFDTut/BetzLimitTesting/betzlimit_testing_basic/RESU/20131203-2001
  MPI ranks:         2 (appnum attribute: 0)
  I/O mode:          MPI-IO, explicit offsets

===============================================================

                   CALCULATION PREPARATION
                   =======================


 ===========================================================



 Reading metadata from file: "mesh_input"

 No error detected during the data verification
                              (interface, usini1 and others).


 ===========================================================

               CALCULATION PARAMETERS SUMMARY
               ==============================

 -----------------------------------------------------------


 ** DIMENSIONS
    ----------

 --- Geometry
       NPRFML =              1 (Nb max. family properties   )
       NFML   =              4 (Nb families                 )

 --- Physics
       NVAR   =              5 (Nb variables                )
       NSCAL  =              1 (Nb scalars                  )
       NSCAUS =              1 (Nb user scalars             )
       NSCAPP =              0 (Nb specific physics scalars )
       NPROCE =              6 (Nb cell properties          )
       NPROFA =              1 (Nb internal face properties )
       NPROFB =              2 (Nb boundary face properties )


 -----------------------------------------------------------


 ** PHYSICAL PROPERTIES
    -------------------

       GX     =    0.00000E+00 (Gravity x component         )
       GY     =    0.00000E+00 (Gravity y component         )
       GZ     =    0.00000E+00 (Gravity z component         )

       OMEGAX =    0.00000E+00 (Rotation vector x component )
       OMEGAY =    0.00000E+00 (Rotation vector y component )
       OMEGAZ =    0.00000E+00 (Rotation vector z component )
       ICORIO =          0 (Coriolis source terms       )

  -- Continuous phase: 

       RO0    =    0.11400E+01 (Reference density           )
       VISCL0 =    0.19500E-04 (Ref. molecular dyn. visc.   )
       CP0    =    0.20600E+04 (Ref. specific heat          )
       ICP    =              0 (> 0: variable CP (usphyv)   )
       P0     =    0.10132E+06 (Ref. total pressure         )
       PRED0  =    0.00000E+00 (Ref. reduced pressure       )
       T0     =    0.00000E+00 (Ref. temperature            )

       IROVAR =              0 (Density constant(0) or not(1)
       IVIVAR =              0 (Molec. visc cst.(0) or not(1)

       Initial reference point for pressure
       XYZP0  =    0.00000E+00   0.00000E+00   0.00000E+00

 -----------------------------------------------------------


 ** TURBULENCE
    ----------

 --- Continuous phase: 

   - Commons                                                 
       ITURB  =              0 (Turbulence model            )
       IDEUCH =              0 (0: one-scale model          )
                               (1: two-scale model          )
                               (2: invariant wall function  )
       YPLULI =    0.23810E+01 (Limit Y+                    )
       ILOGPO =              1 (0: power law (forbidden for
                                              k-epsilon)    )
                               (1: one-scale log law        )
       IGRHOK =              0 (1: computed Grad(rho k)     )
       ISCALT =              1 (Temperature salar number    )

 --- Constants

   - Commons                                                 
       XKAPPA =    0.42000E+00 (Von Karman constant         )
       CSTLOG =    0.52000E+01 (U+=Log(y+)/kappa +CSTLOG    )
       APOW   =    0.83000E+01 (U+=APOW (y+)**BPOW (W&W law))
       BPOW   =    0.14286E+00 (U+=APOW (y+)**BPOW (W&W law))


 -----------------------------------------------------------


 ** SECONDARY VISCOSITY
    -------------------

 --- Continuous phase:          1
       IVISSE = 

 -----------------------------------------------------------


 ** TIME STEPPING
    -------------

    UNSTEADY ALGORITHM

 --- Time step parameters

       IDTVAR =              0 (0 cst; 1,2 var (t, t-space  )
       IPTLRO =              0 (1: rho-related DT clipping  )
       COUMAX =    0.10000E+01 (Maximum target CFL          )
       FOUMAX =    0.10000E+02 (Maximum target Fourier      )
       VARRDT =    0.10000E+00 (For var. DT, max. increase  )
       DTMIN  =    0.10000E-01 (Minimum time step           )
       DTMAX  =    0.10000E+03 (Maximum time step           )
       DTREF  =    0.10000E+00 (Reference time step         )

       With a non-constant time step (IDTVAR = 1 or 2),
         when the value of COUMAX or FOUMAX is negative
         or zero, the associated time step limitation (for
         CFL and Fourier respectively) is ignored.

 --- Frozen velocity field

       ICCVFG =              0 (1: frozen velocity field    )

 --- Per-variable properties

----------------------------
 Variable  ISTAT      CDTVAR
----------------------------
 Pressure      0  0.1000E+01
 Velocity      1  0.1000E+01
 Velocity      1  0.1000E+01
 Velocity      1  0.1000E+01
 TempC         1  0.1000E+01
----------------------------

       ISTAT  =  0 ou  1       (1 for unsteady              )
       CDTVAR >  0             (time step multiplier        )

 --- Order of base time stepping scheme
       ISCHTP =              1 (1: order 1; 2: order 2      )
                                                             

 -----------------------------------------------------------


 ** CONVECTION - DIFFUSION
    ----------------------

-------------------------------------------------------------
 Variable  ICONV  IDIFF IDIFFT ISCHCV ISSTPC   BLENCV  THETAV
-------------------------------------------------------------
 Pressure      0      1      1      1      0 0.00E+00 0.10E+01
 Velocity      1      1      1      1      0 0.10E+01 0.10E+01
 Velocity      1      1      1      1      0 0.10E+01 0.10E+01
 Velocity      1      1      1      1      0 0.10E+01 0.10E+01
 TempC         1      1      1      1      0 0.10E+01 0.10E+01
-------------------------------------------------------------

       ICONV  =  0 ou  1       (1 for convection active     )
       IDIFF  =  0 ou  1       (1 for total diffusion active)
       IDIFFT =  0 ou  1       (1 for turbulent diff. active)
       ISCHCV =  0 ou  1       (SOLU or CD                  )
       ISSTPC =  0 ou  1       (1: no slope test            )
       BLENCV =  [0.;1.]       (1-upwind proportion         )
       THETAV =  [0.;1.]       (0.5 Crank-Nicolson/AB       )
                               (theta for convection-       )
                               (diffusion terms uses        )
                               ((1-theta).old+theta.new     )


 -----------------------------------------------------------


 ** STOKES
    ------
       IPHYDR =              0 (1: account for explicit
                                   balance between pressure
                                   gradient, gravity source
                                   terms, and head losses     )
       ICALHY =              0 (1: compute hydrastatic
                                   pressure for Dirichlet
                                   conditions for pressure
                                   on outlet                  )
       IPRCO  =              1 (1: pressure-continuity        )
       IPUCOU =              0 (1: reinforced U-P coupling    )
       NTERUP =              1 (n: n sweeps on navsto for
                                   velocity/pressure coupling )

  -- Continuous phase: 

       IREVMC =              0 (Velocity reconstruction mode)

       RELAXV =    0.10000E+01 for pressure (relaxation)
       ARAK   =    0.10000E+01 (Arakawa factor              )

       ISTMPF =              1 (time scheme for flow
                               (0: explicit (THETFL = 0     )
                               (1: std scheme (Saturne 1.0  )
                               (2: 2nd-order (THETFL = 0.5  )
       THETFL =   -0.99900E+03 (theta for mass flow         )
       IROEXT =              0 (density extrapolation
                               (0: explicit
                               (1: n+thetro with thetro=1/2
                               (2: n+thetro with thetro=1
       THETRO =    0.00000E+00 (theta for density
                               ((1+theta).new-theta.old
       IVIEXT =              0 (total viscosity extrapolation
                               (0: explicit
                               (1: n+thetvi with thetro=1/2
                               (2: n+thetvi with thetro=1
       THETVI =    0.00000E+00 (theta for total viscosity
                               ((1+theta).new-theta.old
       ICPEXT =              0 (specific heat extrapolation
                               (0: explicit
                               (1: n+thetcp with thetro=1/2
                               (2: n+thetcp with thetro=1
       THETCP =    0.00000E+00 (specific heat theta-scheme
                               ((1+theta).new-theta.old
       THETSN =    0.00000E+00 (Nav-Stokes S.T. theta scheme)
                               ((1+theta).new-theta.old
       THETST =    0.00000E+00 (Turbulence S.T. theta-scheme)
                               ((1+theta).new-theta.old
       EPSUP  =    0.10000E-04 (Velocity/pressure coupling
                                stop test                   )


 -----------------------------------------------------------


 ** GRADIENTS CALCULATION
    ---------------------

       IMRGRA =              0 (Reconstruction mode         )
       ANOMAX =    0.78540E+00 (Non-ortho angle: limit for  )
                               (least squares ext. neighbors)

-----------------------------------------------------------
 Variable NSWRGR NSWRSM      EPSRGR      EPSRSM      EXTRAG
-----------------------------------------------------------
 Pressure    100      2  0.1000E-04  0.1000E-07  0.0000E+00
 Velocity    100      1  0.1000E-04  0.1000E-07  0.0000E+00
 Velocity    100      1  0.1000E-04  0.1000E-07  0.0000E+00
 Velocity    100      1  0.1000E-04  0.1000E-07  0.0000E+00
 TempC       100      1  0.1000E-04  0.1000E-07  0.0000E+00
-----------------------------------------------------------  

-----------------------------------
 Variable IRCFLU IMLIGR      CLIMGR
-----------------------------------
 Pressure      1     -1  0.1500E+01
 Velocity      1     -1  0.1500E+01
 Velocity      1     -1  0.1500E+01
 Velocity      1     -1  0.1500E+01
 TempC         1     -1  0.1500E+01
-----------------------------------

       NSWRGR =                (nb sweep gradient reconstr. )
       NSWRSM =                (nb sweep rhs reconstrcution )
       EPSRGR =                (grad. reconstruction prec.  )
       EPSRSM =                (rhs   reconstruction prec.  )
       EXTRAG =  [0.;1.]       (gradients extrapolation     )
       IRCFLU =  0 ou  1       (flow reconstruction         )
       IMLIGR =  < 0, 0 ou 1   (gradient limitation method  )
       CLIMGR =  > 1 ou 1      (gradient limitation coeff.  )


 -----------------------------------------------------------


 ** FACE INTERPOLATION
    ------------------
       IMVISF =              0 (0 arithmetic                )


 -----------------------------------------------------------


 ** CALCULATION OF TEMPORAL MEANS (MOMENTS)
    ---------------------------------------

       NBMOMT =              0 (Number of moments           )

 -----------------------------------------------------------


 ** BASE ITERATIVE SOLVERS
    ----------------------

------------------------------------------
 Variable IRESOL NITMAX      EPSILO IDIRCL
------------------------------------------
 Pressure     -1  10000  0.1000E-07      1
 Velocity     -1  10000  0.1000E-07      1
 Velocity     -1  10000  0.1000E-07      1
 Velocity     -1  10000  0.1000E-07      1
 TempC        -1  10000  0.1000E-07      1
-----------------------------------

       IRESOL =            -1  (automatic solver choice     )
                IPOL*1000 + 0  (p conjuguate gradient       )
                            1  (Jacobi                      )
                IPOL*1000 + 2  (bicgstab                    )
                  avec IPOL    (preconditioning degree      )
       NITMAX =                (max number of iterations    )
       EPSILO =                (resolution precision        )
       IDIRCL = 0 ou 1         (shift diagonal if          
                                ISTAT=0 and no Dirichlet    )


 -----------------------------------------------------------


 ** MULTIGRID
    ---------

       NCEGRM =             30 (Max nb cells coarsest grid  )
       NGRMAX =             25 (Max number of levels        )
------------------------------                               
 Variable   IMGR NCYMAX NITMGF                               
------------------------------                               
 Pressure      1    100     10
 Velocity      0    100     10
 Velocity      0    100     10
 Velocity      0    100     10
 TempC         0    100     10
------------------------------

       IMGR   =  0 ou 1        (1: multigrid activated      )
       NCYMAX =                (Max number  of cycles       )
       NITMGF =                (Max nb iter on coarsest grid)


  Multigrid rank merge parameters:
    mean  coarse cells merge threshold: 300
    total coarse cells merge threshold: 500
    minimum ranks merge threshold:      1
    merge stride:                       1

 -----------------------------------------------------------


 ** SCALARS
    -------

       ITBRRB =              0 (T or H reconstruction at bdy)

------------------------------------------------------
 Variable Number ISCSTH IVISLS      VISLS0      SIGMAS
------------------------------------------------------
 TempC         1     -1      0  0.6311E-04  0.1000E+01
------------------------------------------------------

-----------------------------------
 Variable Number ISCAVR      RVARFL
-----------------------------------
 TempC         1      0  0.8000E+00
-----------------------------------

-----------------------------------------------
 Variable Number ICLVFL      SCAMIN      SCAMAX
-----------------------------------------------
 TempC         1     -1  0.5000E+02  0.2000E+03
-----------------------------------------------

-------------------------------------------------------------

       For each scalar, the number indicates it's rank
         in the list of all scalars. User scalars are placed
         first, from 1 to NSCAUS. Specific physics scalars
         are placed at the end, from
         NSCAUS+1 to NSCAPP+NSCAUS=NSCAL.

       ISCSTH = -1,0, 1 ou 2   (T (C), Passive, T (K) or H  )
       IVISLS = 0 ou >0        (Viscosity: constant or not  )
       VISLS0 = >0             (Reference viscosity         )
       SIGMAS = >0             (Schmidt                     )
       ISCAVR = 0 ou >0        (Associat. scalar if variance)
       RVARFL = >0             (Rf, cf variance dissipation )
       ICLVFL = 0, 1 ou 2      (Variance clipping mode      )
       SCAMIN =                (Min authorized value        )
       SCAMAX =                (Max authorized value        )
        For variances, SCAMIN is ignored and SCAMAX is used
          only if ICLVFL = 2

------------------------------------------------------
   Scalar        THETSS    IVSEXT      THETVS
------------------------------------------------------
          1  0.0000E+00         0  0.0000E+00
------------------------------------------------------

       THETSS =                (theta for source terms      )
                               ((1+theta).new-theta.old     )
       IVSEXT =                (extrap. total viscosity     )
                               (0: explicit                 )
                               (1: n+thetvs with thetvs=1/2 )
                               (2: n+thetvs with thetvs=1   )
       THETVS =                (theta for scalar diffusivity
                               ((1+theta).new-theta.old     )


 -----------------------------------------------------------


 ** CALCULATION MANAGEMENT
    ----------------------

 --- Restarted calculation
       ISUITE =              0 (1: restarted calculuation   )
       ILEAUX =              1 (1: also read  suiamx        )
       IECAUX =              1 (1: also write suiavx        )

       suiamx and suiavx are the auxiliary restart files.

 --- Calculation time
     The numbering of time steps and the measure of simulated
       physical time are absolute values, and not values
       relative to the current calculation.

       INPDT0 =              0 (1: 0 time step calcuation   )
       NTMABS =             10 (Final time step required    )

 --- CPU time margin
       TMARUS =   -0.10000E+01 (CPU time margin before stop )


 -----------------------------------------------------------


 ** INPUT-OUTPUT
    ------------

 --- Restart file
       NTSUIT =              0 (Checkpoint frequency )

 --- Post-processed variables

       Number Name
            2 Pressure        
            3 VelocityX       
            4 VelocityY       
            5 VelocityZ       
            6 TempC           
            9 CourantNb       
           10 FourierNb       
           11 total_pressure  
         --           --

 --- Probe history files
       NTHIST =              1 (Output frequency     )
       FRHIST =     -.10000E+01 (Output frequency (s) )
       NCAPT  =              9 (Number of probes     )
       NTHSAV =             -1 (Checkpoint frequency )

       Number Name                  Nb. probes (-1: all)
            2 Pressure                      -1
            3 VelocityX                     -1
            4 VelocityY                     -1
            5 VelocityZ                     -1
            6 TempC                         -1
            7 Density                       -1
            8 LamVisc                       -1
            9 CourantNb                     -1
           10 FourierNb                     -1
           11 total_pressure                -1
         --           --                --

 --- Log files
       NTLIST =              1 (Output frequency     )

       Number Name                IWARNI verbosity level
                                      (-999: not applicable)

            2 Pressure                       0
            3 VelocityX                      0
            4 VelocityY                      0
            5 VelocityZ                      0
            6 TempC                          0
            9 CourantNb                   -999
           10 FourierNb                   -999
           11 total_pressure              -999
         --           --                --

 --- Additional post-processing variables
       IPSTDV =            210 (Product of the following     
                                values based on activation  )
       IPSTYP =              2 (Yplus          on boundary  )
       IPSTCL =              3 (Variables      on boundary  )
       IPSTFT =              5 (Thermal flow   on boundary  )
       IPSTFO =              7 (Force exerted  on boundary  )
  and  IPSTDV =              1 (No additional output        )


 -----------------------------------------------------------


 ** ALE METHOD (MOVING MESH)
    -----------                                              

       IALE   =              0 (1: activated                )
       NALINF =           -999 (Fluid initialization
                                                  iterations)


 -----------------------------------------------------------


 Reading file:        mesh_input
 Finished reading:    mesh_input
 No "partition/domain_number_2" file available;
   domain partitioning will use a space-filling curve.

 Partitioning by space-filling curve: Morton (in bounding box).

Postprocessing output writers:
------------------------------

  -1: name: results_init_5_smalldisk
      directory: postprocessing
      format: EnSight Gold
      options: 
      time dependency: fixed mesh
      output: at calculation end


 ----------------------------------------------------------

 Halo construction with standard neighborhood
 ============================================

 Face interfaces creation
 Vertex interfaces creation
 Halo creation
 Halo definition
    Local halo definition
    Distant halo creation
    Updating the faces -> cells connectivity

 Halo creation times summary

     Interface creation:                       0.0137 s
     Halo creation:                             0.00452 s

     Total time for halo creation:              0.0182 s

 ----------------------------------------------------------


 Histogram of the number of cells per rank:

    minimum value =              41558
    maximum value =              41558

      1 : [      41558 ;      41558 ] =          2

 ----------------------------------------------------------

 Histogram of the number of standard + halo cells per rank:

    minimum value =              42097
    maximum value =              42137

      1 : [      42097 ;      42105 [ =          1
      2 : [      42105 ;      42113 [ =          0
      3 : [      42113 ;      42121 [ =          0
      4 : [      42121 ;      42129 [ =          0
      5 : [      42129 ;      42137 ] =          1

 ----------------------------------------------------------

 Histogram of the number of ghost cells per rank:

    minimum value =                539
    maximum value =                579

      1 : [        539 ;        547 [ =          1
      2 : [        547 ;        555 [ =          0
      3 : [        555 ;        563 [ =          0
      4 : [        563 ;        571 [ =          0
      5 : [        571 ;        579 ] =          1

 ----------------------------------------------------------

 Histogram of the number of interior faces per rank:

    minimum value =              83419
    maximum value =              83419

      1 : [      83419 ;      83419 ] =          2

 ----------------------------------------------------------

 Histogram of the number of boundary faces per rank:

    minimum value =               1860
    maximum value =               1920

      1 : [       1860 ;       1872 [ =          1
      2 : [       1872 ;       1884 [ =          0
      3 : [       1884 ;       1896 [ =          0
      4 : [       1896 ;       1908 [ =          0
      5 : [       1908 ;       1920 ] =          1

 ----------------------------------------------------------

 Histogram of the number of interior faces per cell:

    minimum value =                  3
    maximum value =                  4

      1 : [          3 ;          4 ] =      83116

 ----------------------------------------------------------

 Histogram of the number of neighboring domains per rank:

    minimum value =                  1
    maximum value =                  1

      1 : [          1 ;          1 ] =          2

 ----------------------------------------------------------

 Global definition of the number of elements (cells, vertices, faces...)
Synchronizing cell families

 Renumbering mesh:

 Mesh coordinates:               minimum    and maximum
                       X :  0.0000000e+00  5.0000000e+01
                       Y : -9.9968918e+00  9.9968918e+00
                       Z : -9.9875692e+00  1.0000000e+01
 Mesh
     Number of cells:          83116
     Number of interior faces: 166169
     Number of boundary faces: 3780
     Number of vertices:       16925

 Groups:
    "inlet"
       boundary faces:          315
    "oulet"
       boundary faces:          315
    "wall"
       boundary faces:         3150

 --- Information on the volumes
       Minimum control volume      =  1.0555193e-02
       Maximum control volume      =  4.8189724e+00
       Total volume for the domain =  1.5681936e+04

 Computing geometric quantities (0.0413 s)
                                                             
       ALMAX  =    0.24950E+02 (Characteristic length       )
       ALMAX is the cubic root of the domain volume.



HEAD LOSS TERMS TREATMENT ACTIVATED 
                 ON   A TOTAL OF NCEPDC =          1 CELLS


===============================================================

                                                             
 ----------------------------------------------------------- 
                                                             
                                                             
 ** VARIABLES INITIALIZATION                                 
    ------------------------                                 
                                                             
 ---------------------------------                           
  Variable  Min. value  Max. value                           
 ---------------------------------                           
  Pressure  0.0000E+00  0.0000E+00
  Velocity  0.5000E+01  0.5000E+01
  Velocity  0.0000E+00  0.0000E+00
  Velocity  0.0000E+00  0.0000E+00
  TempC     0.5000E+02  0.5000E+02
 ---------------------------------                           

  VisTur    0.1000E+00  0.1000E+00
 ---------------------------------                           



-------------------------------------------------------------



===============================================================



                       MAIN CALCULATION                      
                       ================                      


===============================================================




===============================================================


 INSTANT    0.100000000E+00   TIME STEP NUMBER               1
 ============================================================= 


 ---------------------------------                           
 Property   Min. value  Max. value                           
 ---------------------------------                           
  Density   0.1140E+01  0.1140E+01
  LamVisc   0.1950E-04  0.1950E-04
 ---------------------------------                           

 --- Diffusivity:                                            
 ---------------------------------------                     
 Scalar   Number  Min. value  Max. value                     
 ---------------------------------------                     
 TempC         1  0.6311E-04  0.6311E-04
 ---------------------------------------                     



Code_Saturne: cs_gui_boundary_conditions.c:1074: Warning
The group or attribute "outlet" in the selection
criteria:
"outlet"
 does not correspond to any boundary face.


Code_Saturne: cs_gui_boundary_conditions.c:1074: Warning
The group or attribute "sym" in the selection
criteria:
"sym"
 does not correspond to any boundary face.


Code_Saturne: cs_gui_boundary_conditions.c:1074: Warning
The group or attribute "outlet" in the selection
criteria:
"not (inlet or outlet or wall or sym)"
 does not correspond to any boundary face.


Code_Saturne: cs_gui_boundary_conditions.c:1074: Warning
The group or attribute "outlet" in the selection
criteria:
"not (inlet or outlet or wall or sym or not (inlet or outlet or wall or sym))"
 does not correspond to any boundary face.


Code_Saturne: cs_gui_boundary_conditions.c:1074: Warning
The group or attribute "outlet" in the selection
criteria:
"outlet"
 does not correspond to any boundary face.


Code_Saturne: cs_gui_boundary_conditions.c:1074: Warning
The group or attribute "sym" in the selection
criteria:
"sym"
 does not correspond to any boundary face.


Code_Saturne: cs_gui_boundary_conditions.c:1074: Warning
The group or attribute "outlet" in the selection
criteria:
"not (inlet or outlet or wall or sym)"
 does not correspond to any boundary face.


Code_Saturne: cs_gui_boundary_conditions.c:1074: Warning
The group or attribute "outlet" in the selection
criteria:
"not (inlet or outlet or wall or sym or not (inlet or outlet or wall or sym))"
 does not correspond to any boundary face.


Code_Saturne: cs_gui_boundary_conditions.c:1074: Warning
The group or attribute "outlet" in the selection
criteria:
"outlet"
 does not correspond to any boundary face.


Code_Saturne: cs_gui_boundary_conditions.c:1074: Warning
The group or attribute "sym" in the selection
criteria:
"sym"
 does not correspond to any boundary face.


Code_Saturne: cs_gui_boundary_conditions.c:1074: Warning
The group or attribute "outlet" in the selection
criteria:
"not (inlet or outlet or wall or sym)"
 does not correspond to any boundary face.


Code_Saturne: cs_gui_boundary_conditions.c:1074: Warning
The group or attribute "outlet" in the selection
criteria:
"not (inlet or outlet or wall or sym or not (inlet or outlet or wall or sym))"
 does not correspond to any boundary face.


   ** INFORMATION ON BOUNDARY FACES TYPE
      ----------------------------------

-------------------------------------------------------------------------
Boundary type          Code    Nb faces
-------------------------------------------------------------------------
Inlet                     2         315
Smooth wall               5        3150
Rough wall                6           0
Symmetry                  4           0
Free outlet               3         315
Undefined                 1           0
-------------------------------------------------------------------------


Boundary faces with free inlet/outlet detected
Update of reference point for total pressure
 XYZP0 =    0.50000E+02  -0.12623E+01   0.42412E+00



   ** BOUNDARY MASS FLOW INFORMATION
      ------------------------------

---------------------------------------------------------------
Boundary type          Code    Nb faces           Mass flow
---------------------------------------------------------------
Inlet                     2         315         0.000000000E+00
Smooth wall               5        3150         0.000000000E+00
Rough wall                6           0         0.000000000E+00
Symmetry                  4           0         0.000000000E+00
Free outlet               3         315         0.000000000E+00
Undefined                 1           0         0.000000000E+00
---------------------------------------------------------------


   ** BOUNDARY CONDITIONS FOR SMOOTH WALLS
   ---------------------------------------
------------------------------------------------------------
                                         Minimum     Maximum
------------------------------------------------------------
   Rel velocity at the wall uiptn :  0.42288E+01 0.42455E+01
   Friction velocity        uet   :  0.21127E+00 0.21594E+00
   Friction velocity        uk    :  0.21127E+00 0.21594E+00
   Dimensionless distance   yplus :  0.18835E+04 0.23354E+04
   ------------------------------------------------------   
   Nb of reversal of the velocity at the wall   :          0
   Nb of faces within the viscous sub-layer     :          0
   Total number of wall faces                   :       3150
------------------------------------------------------------


@                                                            
@@@@@@@@@@@@@@@@@@@@@@@@@@@@@@@@@@@@@@@@@@@@@@@@@@@@@@@@@@@@@
@                                                            
@ @@ WARNING: MESH NOT ENOUGH REFINED AT THE WALL            
@    ========                                                
@    The mesh does not seem to be enough refined at the wall 
@      to be able to run a laminar simulation.               
@                                                            
@    The last time step at which too large values for the    
@      dimensionless distance to the wall (yplus) have been  
@      observed is the time step          1
@                                                            
@    The minimum value for yplus must be lower than the      
@      limit value YPLULI =    0.23810E+01
@                                                            
@    Have a look at the distribution of yplus at the wall    
@      (with EnSight for example) to conclude on the way     
@      the results quality might be affected.                
@                                                            
@    This warning is only printed at the first two           
@      occurences of the problem and at the last time step   
@      of the calculation. The vanishing of the message does 
@      not necessarily mean the vanishing of the problem.    
@                                                            
@@@@@@@@@@@@@@@@@@@@@@@@@@@@@@@@@@@@@@@@@@@@@@@@@@@@@@@@@@@@@
@                                                            


   ** INFORMATION ON CONVERGENCE
      --------------------------
---------------------------------------------------------------
   Variable    Rhs norm      N_iter  Norm. residual      derive
---------------------------------------------------------------
c  Pressure     0.32947E+01     712   0.88184E-08   0.14567E+01 
c  VelocityX    0.67265E+04       3   0.86422E-13   0.11155E-02 
c  VelocityY    0.48851E-03       3   0.46330E-08   0.18988E-03 
c  VelocityZ    0.49124E-03       3   0.46374E-08   0.19454E-03 
c  TempC        0.67265E+05      39   0.81563E-08   0.85579E-21 
---------------------------------------------------------------
  
  

   ** INFORMATION ON VARIABLES
      ------------------------
---------------------------------------------------------------
   Variable      Min. value    Max. value   Min clip   Max clip
---------------------------------------------------------------
v  Pressure    -0.83388E-01   0.31188E+01         --         -- 
v  VelocityX    0.44166E+01   0.50611E+01         --         -- 
v  VelocityY   -0.61008E-01   0.62913E-01         --         -- 
v  VelocityZ   -0.59394E-01   0.81067E-01         --         -- 
v  TempC        0.50000E+02   0.50000E+02      39013          0 
v  CourantNb    0.00000E+00   0.00000E+00          0          0 
v  FourierNb    0.62313E-05   0.24441E-02          0          0 
v  total_pressu 0.10132E+06   0.10133E+06          0          0 
---------------------------------------------------------------
  
  

   ** INFORMATION ON CLIPPINGS
      ------------------------
---------------------------------------------------------------
   Variable    Min wo clips  Max wo clips   Min clip   Max clip
---------------------------------------------------------------
a  TempC        0.15409E+02   0.50000E+02      39013          0 
---------------------------------------------------------------
  
  

   ** INFORMATION ON THE TIME STEP
      -----------------------------
---------------------------------------------------------------
Criterion    Value      at         xc           yc           zc
---------------------------------------------------------------
Courant min  0.00000E+00  0.13360E+00  0.45033E+00  0.90233E+01  
Courant max  0.00000E+00  0.13360E+00  0.45033E+00  0.90233E+01  
Fourier min  0.62313E-05  0.29620E+02 -0.19880E+01  0.11983E+01  
Fourier max  0.24441E-02  0.13529E+01  0.56021E+00  0.25537E+01  
Cou_Fou min  0.62313E-05  0.29620E+02 -0.19880E+01  0.11983E+01  
Cou_Fou max  0.24441E-02  0.13529E+01  0.56021E+00  0.25537E+01  
---------------------------------------------------------------
  
  

 CPU TIME FOR THE TIME STEP                1:        0.29802E+01

===============================================================


 INSTANT    0.200000000E+00   TIME STEP NUMBER               2
 ============================================================= 




Code_Saturne: cs_gui_boundary_conditions.c:1074: Warning
The group or attribute "outlet" in the selection
criteria:
"outlet"
 does not correspond to any boundary face.


Code_Saturne: cs_gui_boundary_conditions.c:1074: Warning
The group or attribute "sym" in the selection
criteria:
"sym"
 does not correspond to any boundary face.


Code_Saturne: cs_gui_boundary_conditions.c:1074: Warning
The group or attribute "outlet" in the selection
criteria:
"not (inlet or outlet or wall or sym)"
 does not correspond to any boundary face.


Code_Saturne: cs_gui_boundary_conditions.c:1074: Warning
The group or attribute "outlet" in the selection
criteria:
"not (inlet or outlet or wall or sym or not (inlet or outlet or wall or sym))"
 does not correspond to any boundary face.


Code_Saturne: cs_gui_boundary_conditions.c:1074: Warning
The group or attribute "outlet" in the selection
criteria:
"outlet"
 does not correspond to any boundary face.


Code_Saturne: cs_gui_boundary_conditions.c:1074: Warning
The group or attribute "sym" in the selection
criteria:
"sym"
 does not correspond to any boundary face.


Code_Saturne: cs_gui_boundary_conditions.c:1074: Warning
The group or attribute "outlet" in the selection
criteria:
"not (inlet or outlet or wall or sym)"
 does not correspond to any boundary face.


Code_Saturne: cs_gui_boundary_conditions.c:1074: Warning
The group or attribute "outlet" in the selection
criteria:
"not (inlet or outlet or wall or sym or not (inlet or outlet or wall or sym))"
 does not correspond to any boundary face.


   ** BOUNDARY MASS FLOW INFORMATION
      ------------------------------

---------------------------------------------------------------
Boundary type          Code    Nb faces           Mass flow
---------------------------------------------------------------
Inlet                     2         315        -0.178774069E+04
Smooth wall               5        3150        -0.527185612E-29
Rough wall                6           0         0.000000000E+00
Symmetry                  4           0         0.000000000E+00
Free outlet               3         315         0.178774069E+04
Undefined                 1           0         0.000000000E+00
---------------------------------------------------------------


   ** BOUNDARY CONDITIONS FOR SMOOTH WALLS
   ---------------------------------------
------------------------------------------------------------
                                         Minimum     Maximum
------------------------------------------------------------
   Rel velocity at the wall uiptn :  0.42210E+01 0.42685E+01
   Friction velocity        uet   :  0.21104E+00 0.21695E+00
   Friction velocity        uk    :  0.21104E+00 0.21695E+00
   Dimensionless distance   yplus :  0.18804E+04 0.23467E+04
   ------------------------------------------------------   
   Nb of reversal of the velocity at the wall   :          0
   Nb of faces within the viscous sub-layer     :          0
   Total number of wall faces                   :       3150
------------------------------------------------------------


@                                                            
@@@@@@@@@@@@@@@@@@@@@@@@@@@@@@@@@@@@@@@@@@@@@@@@@@@@@@@@@@@@@
@                                                            
@ @@ WARNING: MESH NOT ENOUGH REFINED AT THE WALL            
@    ========                                                
@    The mesh does not seem to be enough refined at the wall 
@      to be able to run a laminar simulation.               
@                                                            
@    The last time step at which too large values for the    
@      dimensionless distance to the wall (yplus) have been  
@      observed is the time step          2
@                                                            
@    The minimum value for yplus must be lower than the      
@      limit value YPLULI =    0.23810E+01
@                                                            
@    Have a look at the distribution of yplus at the wall    
@      (with EnSight for example) to conclude on the way     
@      the results quality might be affected.                
@                                                            
@    This warning is only printed at the first two           
@      occurences of the problem and at the last time step   
@      of the calculation. The vanishing of the message does 
@      not necessarily mean the vanishing of the problem.    
@                                                            
@@@@@@@@@@@@@@@@@@@@@@@@@@@@@@@@@@@@@@@@@@@@@@@@@@@@@@@@@@@@@
@                                                            


   ** INFORMATION ON CONVERGENCE
      --------------------------
---------------------------------------------------------------
   Variable    Rhs norm      N_iter  Norm. residual      derive
---------------------------------------------------------------
c  Pressure     0.27620E+01     610   0.97283E-08   0.12502E+01 
c  VelocityX    0.67824E+04      27   0.90533E-08   0.47661E-03 
c  VelocityY    0.50678E+01      43   0.95914E-08   0.57828E-04 
c  VelocityZ    0.56927E+01      43   0.85060E-08   0.59458E-04 
c  TempC        0.67265E+05      39   0.81979E-08   0.55422E-21 
---------------------------------------------------------------
  
  

   ** INFORMATION ON VARIABLES
      ------------------------
---------------------------------------------------------------
   Variable      Min. value    Max. value   Min clip   Max clip
---------------------------------------------------------------
v  Pressure    -0.51290E+00   0.10873E+01         --         -- 
v  VelocityX    0.44013E+01   0.51228E+01         --         -- 
v  VelocityY   -0.92237E-01   0.90078E-01         --         -- 
v  VelocityZ   -0.90034E-01   0.11333E+00         --         -- 
v  TempC        0.50000E+02   0.50000E+02      35090          0 
v  CourantNb    0.41856E+00   0.11636E+02          0          0 
v  FourierNb    0.62313E-05   0.24441E-02          0          0 
v  total_pressu 0.10132E+06   0.10133E+06          0          0 
---------------------------------------------------------------
  
  

   ** INFORMATION ON CLIPPINGS
      ------------------------
---------------------------------------------------------------
   Variable    Min wo clips  Max wo clips   Min clip   Max clip
---------------------------------------------------------------
a  TempC        0.15409E+02   0.50000E+02      35090          0 
---------------------------------------------------------------
  
  

   ** INFORMATION ON THE TIME STEP
      -----------------------------
---------------------------------------------------------------
Criterion    Value      at         xc           yc           zc
---------------------------------------------------------------
Courant min  0.41856E+00  0.65860E+01  0.90749E+00  0.10578E+01  
Courant max  0.11636E+02  0.82676E+00 -0.62830E+01  0.25324E+01  
Fourier min  0.62313E-05  0.29620E+02 -0.19880E+01  0.11983E+01  
Fourier max  0.24441E-02  0.13529E+01  0.56021E+00  0.25537E+01  
Cou_Fou min  0.41857E+00  0.65860E+01  0.90749E+00  0.10578E+01  
Cou_Fou max  0.11636E+02  0.82676E+00 -0.62830E+01  0.25324E+01  
---------------------------------------------------------------
  
  

 CPU TIME FOR THE TIME STEP                2:        0.35882E+01

===============================================================


 INSTANT    0.300000000E+00   TIME STEP NUMBER               3
 ============================================================= 




Code_Saturne: cs_gui_boundary_conditions.c:1074: Warning
The group or attribute "outlet" in the selection
criteria:
"outlet"
 does not correspond to any boundary face.


Code_Saturne: cs_gui_boundary_conditions.c:1074: Warning
The group or attribute "sym" in the selection
criteria:
"sym"
 does not correspond to any boundary face.


Code_Saturne: cs_gui_boundary_conditions.c:1074: Warning
The group or attribute "outlet" in the selection
criteria:
"not (inlet or outlet or wall or sym)"
 does not correspond to any boundary face.


Code_Saturne: cs_gui_boundary_conditions.c:1074: Warning
The group or attribute "outlet" in the selection
criteria:
"not (inlet or outlet or wall or sym or not (inlet or outlet or wall or sym))"
 does not correspond to any boundary face.


Code_Saturne: cs_gui_boundary_conditions.c:1074: Warning
The group or attribute "outlet" in the selection
criteria:
"outlet"
 does not correspond to any boundary face.


Code_Saturne: cs_gui_boundary_conditions.c:1074: Warning
The group or attribute "sym" in the selection
criteria:
"sym"
 does not correspond to any boundary face.


Code_Saturne: cs_gui_boundary_conditions.c:1074: Warning
The group or attribute "outlet" in the selection
criteria:
"not (inlet or outlet or wall or sym)"
 does not correspond to any boundary face.


Code_Saturne: cs_gui_boundary_conditions.c:1074: Warning
The group or attribute "outlet" in the selection
criteria:
"not (inlet or outlet or wall or sym or not (inlet or outlet or wall or sym))"
 does not correspond to any boundary face.


   ** BOUNDARY MASS FLOW INFORMATION
      ------------------------------

---------------------------------------------------------------
Boundary type          Code    Nb faces           Mass flow
---------------------------------------------------------------
Inlet                     2         315        -0.178774069E+04
Smooth wall               5        3150         0.106831521E-15
Rough wall                6           0         0.000000000E+00
Symmetry                  4           0         0.000000000E+00
Free outlet               3         315         0.178774069E+04
Undefined                 1           0         0.000000000E+00
---------------------------------------------------------------


   ** BOUNDARY CONDITIONS FOR SMOOTH WALLS
   ---------------------------------------
------------------------------------------------------------
                                         Minimum     Maximum
------------------------------------------------------------
   Rel velocity at the wall uiptn :  0.41587E+01 0.42560E+01
   Friction velocity        uet   :  0.20740E+00 0.21718E+00
   Friction velocity        uk    :  0.20740E+00 0.21718E+00
   Dimensionless distance   yplus :  0.18639E+04 0.23406E+04
   ------------------------------------------------------   
   Nb of reversal of the velocity at the wall   :          0
   Nb of faces within the viscous sub-layer     :          0
   Total number of wall faces                   :       3150
------------------------------------------------------------



   ** INFORMATION ON CONVERGENCE
      --------------------------
---------------------------------------------------------------
   Variable    Rhs norm      N_iter  Norm. residual      derive
---------------------------------------------------------------
c  Pressure     0.10236E+01     579   0.89959E-08   0.40128E+00 
c  VelocityX    0.67809E+04      27   0.77749E-08   0.28807E-03 
c  VelocityY    0.93803E+01      44   0.69596E-08   0.47313E-04 
c  VelocityZ    0.10848E+02      43   0.88024E-08   0.49472E-04 
c  TempC        0.67265E+05      39   0.82349E-08   0.42304E-21 
---------------------------------------------------------------
  
  

   ** INFORMATION ON VARIABLES
      ------------------------
---------------------------------------------------------------
   Variable      Min. value    Max. value   Min clip   Max clip
---------------------------------------------------------------
v  Pressure    -0.93456E+00   0.10326E+01         --         -- 
v  VelocityX    0.43614E+01   0.52044E+01         --         -- 
v  VelocityY   -0.11841E+00   0.96168E-01         --         -- 
v  VelocityZ   -0.10617E+00   0.12913E+00         --         -- 
v  TempC        0.50000E+02   0.50000E+02      33753          0 
v  CourantNb    0.41850E+00   0.11629E+02          0          0 
v  FourierNb    0.62313E-05   0.24441E-02          0          0 
v  total_pressu 0.10132E+06   0.10133E+06          0          0 
---------------------------------------------------------------
  
  

   ** INFORMATION ON CLIPPINGS
      ------------------------
---------------------------------------------------------------
   Variable    Min wo clips  Max wo clips   Min clip   Max clip
---------------------------------------------------------------
a  TempC        0.15409E+02   0.50000E+02      33753          0 
---------------------------------------------------------------
  
  

   ** INFORMATION ON THE TIME STEP
      -----------------------------
---------------------------------------------------------------
Criterion    Value      at         xc           yc           zc
---------------------------------------------------------------
Courant min  0.41850E+00  0.65860E+01  0.90749E+00  0.10578E+01  
Courant max  0.11629E+02  0.82676E+00 -0.62830E+01  0.25324E+01  
Fourier min  0.62313E-05  0.29620E+02 -0.19880E+01  0.11983E+01  
Fourier max  0.24441E-02  0.13529E+01  0.56021E+00  0.25537E+01  
Cou_Fou min  0.41851E+00  0.65860E+01  0.90749E+00  0.10578E+01  
Cou_Fou max  0.11629E+02  0.82676E+00 -0.62830E+01  0.25324E+01  
---------------------------------------------------------------
  
  

 CPU TIME FOR THE TIME STEP                3:        0.41323E+01

===============================================================


 INSTANT    0.400000000E+00   TIME STEP NUMBER               4
 ============================================================= 




Code_Saturne: cs_gui_boundary_conditions.c:1074: Warning
The group or attribute "outlet" in the selection
criteria:
"outlet"
 does not correspond to any boundary face.


Code_Saturne: cs_gui_boundary_conditions.c:1074: Warning
The group or attribute "sym" in the selection
criteria:
"sym"
 does not correspond to any boundary face.


Code_Saturne: cs_gui_boundary_conditions.c:1074: Warning
The group or attribute "outlet" in the selection
criteria:
"not (inlet or outlet or wall or sym)"
 does not correspond to any boundary face.


Code_Saturne: cs_gui_boundary_conditions.c:1074: Warning
The group or attribute "outlet" in the selection
criteria:
"not (inlet or outlet or wall or sym or not (inlet or outlet or wall or sym))"
 does not correspond to any boundary face.


Code_Saturne: cs_gui_boundary_conditions.c:1074: Warning
The group or attribute "outlet" in the selection
criteria:
"outlet"
 does not correspond to any boundary face.


Code_Saturne: cs_gui_boundary_conditions.c:1074: Warning
The group or attribute "sym" in the selection
criteria:
"sym"
 does not correspond to any boundary face.


Code_Saturne: cs_gui_boundary_conditions.c:1074: Warning
The group or attribute "outlet" in the selection
criteria:
"not (inlet or outlet or wall or sym)"
 does not correspond to any boundary face.


Code_Saturne: cs_gui_boundary_conditions.c:1074: Warning
The group or attribute "outlet" in the selection
criteria:
"not (inlet or outlet or wall or sym or not (inlet or outlet or wall or sym))"
 does not correspond to any boundary face.


   ** BOUNDARY MASS FLOW INFORMATION
      ------------------------------

---------------------------------------------------------------
Boundary type          Code    Nb faces           Mass flow
---------------------------------------------------------------
Inlet                     2         315        -0.178774069E+04
Smooth wall               5        3150         0.463745222E-16
Rough wall                6           0         0.000000000E+00
Symmetry                  4           0         0.000000000E+00
Free outlet               3         315         0.178774069E+04
Undefined                 1           0         0.000000000E+00
---------------------------------------------------------------


   ** BOUNDARY CONDITIONS FOR SMOOTH WALLS
   ---------------------------------------
------------------------------------------------------------
                                         Minimum     Maximum
------------------------------------------------------------
   Rel velocity at the wall uiptn :  0.40871E+01 0.42545E+01
   Friction velocity        uet   :  0.20421E+00 0.21711E+00
   Friction velocity        uk    :  0.20421E+00 0.21711E+00
   Dimensionless distance   yplus :  0.18410E+04 0.23374E+04
   ------------------------------------------------------   
   Nb of reversal of the velocity at the wall   :          0
   Nb of faces within the viscous sub-layer     :          0
   Total number of wall faces                   :       3150
------------------------------------------------------------



   ** INFORMATION ON CONVERGENCE
      --------------------------
---------------------------------------------------------------
   Variable    Rhs norm      N_iter  Norm. residual      derive
---------------------------------------------------------------
c  Pressure     0.92519E+00     600   0.86128E-08   0.30178E+00 
c  VelocityX    0.67788E+04      27   0.68473E-08   0.32898E-03 
c  VelocityY    0.10581E+02      42   0.88014E-08   0.39237E-04 
c  VelocityZ    0.12821E+02      42   0.74940E-08   0.42788E-04 
c  TempC        0.67265E+05      39   0.82732E-08   0.30041E-21 
---------------------------------------------------------------
  
  

   ** INFORMATION ON VARIABLES
      ------------------------
---------------------------------------------------------------
   Variable      Min. value    Max. value   Min clip   Max clip
---------------------------------------------------------------
v  Pressure    -0.59376E+00   0.14745E+01         --         -- 
v  VelocityX    0.42569E+01   0.52711E+01         --         -- 
v  VelocityY   -0.10631E+00   0.10095E+00         --         -- 
v  VelocityZ   -0.11177E+00   0.14367E+00         --         -- 
v  TempC        0.50000E+02   0.50000E+02      32992          0 
v  CourantNb    0.41841E+00   0.11618E+02          0          0 
v  FourierNb    0.62313E-05   0.24441E-02          0          0 
v  total_pressu 0.10132E+06   0.10133E+06          0          0 
---------------------------------------------------------------
  
  

   ** INFORMATION ON CLIPPINGS
      ------------------------
---------------------------------------------------------------
   Variable    Min wo clips  Max wo clips   Min clip   Max clip
---------------------------------------------------------------
a  TempC        0.15409E+02   0.50000E+02      32992          0 
---------------------------------------------------------------
  
  

   ** INFORMATION ON THE TIME STEP
      -----------------------------
---------------------------------------------------------------
Criterion    Value      at         xc           yc           zc
---------------------------------------------------------------
Courant min  0.41841E+00  0.65860E+01  0.90749E+00  0.10578E+01  
Courant max  0.11618E+02  0.82676E+00 -0.62830E+01  0.25324E+01  
Fourier min  0.62313E-05  0.29620E+02 -0.19880E+01  0.11983E+01  
Fourier max  0.24441E-02  0.13529E+01  0.56021E+00  0.25537E+01  
Cou_Fou min  0.41842E+00  0.65860E+01  0.90749E+00  0.10578E+01  
Cou_Fou max  0.11618E+02  0.82676E+00 -0.62830E+01  0.25324E+01  
---------------------------------------------------------------
  
  

 CPU TIME FOR THE TIME STEP                4:        0.41603E+01

===============================================================


 INSTANT    0.500000000E+00   TIME STEP NUMBER               5
 ============================================================= 




Code_Saturne: cs_gui_boundary_conditions.c:1074: Warning
The group or attribute "outlet" in the selection
criteria:
"outlet"
 does not correspond to any boundary face.


Code_Saturne: cs_gui_boundary_conditions.c:1074: Warning
The group or attribute "sym" in the selection
criteria:
"sym"
 does not correspond to any boundary face.


Code_Saturne: cs_gui_boundary_conditions.c:1074: Warning
The group or attribute "outlet" in the selection
criteria:
"not (inlet or outlet or wall or sym)"
 does not correspond to any boundary face.


Code_Saturne: cs_gui_boundary_conditions.c:1074: Warning
The group or attribute "outlet" in the selection
criteria:
"not (inlet or outlet or wall or sym or not (inlet or outlet or wall or sym))"
 does not correspond to any boundary face.


Code_Saturne: cs_gui_boundary_conditions.c:1074: Warning
The group or attribute "outlet" in the selection
criteria:
"outlet"
 does not correspond to any boundary face.


Code_Saturne: cs_gui_boundary_conditions.c:1074: Warning
The group or attribute "sym" in the selection
criteria:
"sym"
 does not correspond to any boundary face.


Code_Saturne: cs_gui_boundary_conditions.c:1074: Warning
The group or attribute "outlet" in the selection
criteria:
"not (inlet or outlet or wall or sym)"
 does not correspond to any boundary face.


Code_Saturne: cs_gui_boundary_conditions.c:1074: Warning
The group or attribute "outlet" in the selection
criteria:
"not (inlet or outlet or wall or sym or not (inlet or outlet or wall or sym))"
 does not correspond to any boundary face.


   ** BOUNDARY MASS FLOW INFORMATION
      ------------------------------

---------------------------------------------------------------
Boundary type          Code    Nb faces           Mass flow
---------------------------------------------------------------
Inlet                     2         315        -0.178774069E+04
Smooth wall               5        3150        -0.847597367E-16
Rough wall                6           0         0.000000000E+00
Symmetry                  4           0         0.000000000E+00
Free outlet               3         315         0.178774068E+04
Undefined                 1           0         0.000000000E+00
---------------------------------------------------------------


   ** BOUNDARY CONDITIONS FOR SMOOTH WALLS
   ---------------------------------------
------------------------------------------------------------
                                         Minimum     Maximum
------------------------------------------------------------
   Rel velocity at the wall uiptn :  0.40892E+01 0.42546E+01
   Friction velocity        uet   :  0.20487E+00 0.21711E+00
   Friction velocity        uk    :  0.20487E+00 0.21711E+00
   Dimensionless distance   yplus :  0.18280E+04 0.23370E+04
   ------------------------------------------------------   
   Nb of reversal of the velocity at the wall   :          0
   Nb of faces within the viscous sub-layer     :          0
   Total number of wall faces                   :       3150
------------------------------------------------------------



   ** INFORMATION ON CONVERGENCE
      --------------------------
---------------------------------------------------------------
   Variable    Rhs norm      N_iter  Norm. residual      derive
---------------------------------------------------------------
c  Pressure     0.92352E+00     565   0.88104E-08   0.29333E+00 
c  VelocityX    0.67787E+04      26   0.98133E-08   0.28733E-03 
c  VelocityY    0.11876E+02      41   0.82882E-08   0.35904E-04 
c  VelocityZ    0.15184E+02      40   0.93687E-08   0.38145E-04 
c  TempC        0.67265E+05      39   0.83098E-08   0.22515E-21 
---------------------------------------------------------------
  
  

   ** INFORMATION ON VARIABLES
      ------------------------
---------------------------------------------------------------
   Variable      Min. value    Max. value   Min clip   Max clip
---------------------------------------------------------------
v  Pressure    -0.51488E+00   0.12963E+01         --         -- 
v  VelocityX    0.43021E+01   0.53271E+01         --         -- 
v  VelocityY   -0.10726E+00   0.10925E+00         --         -- 
v  VelocityZ   -0.11672E+00   0.14706E+00         --         -- 
v  TempC        0.50000E+02   0.50000E+02      32293          0 
v  CourantNb    0.41837E+00   0.11607E+02          0          0 
v  FourierNb    0.62313E-05   0.24441E-02          0          0 
v  total_pressu 0.10132E+06   0.10133E+06          0          0 
---------------------------------------------------------------
  
  

   ** INFORMATION ON CLIPPINGS
      ------------------------
---------------------------------------------------------------
   Variable    Min wo clips  Max wo clips   Min clip   Max clip
---------------------------------------------------------------
a  TempC        0.15409E+02   0.50000E+02      32293          0 
---------------------------------------------------------------
  
  

   ** INFORMATION ON THE TIME STEP
      -----------------------------
---------------------------------------------------------------
Criterion    Value      at         xc           yc           zc
---------------------------------------------------------------
Courant min  0.41837E+00  0.65860E+01  0.90749E+00  0.10578E+01  
Courant max  0.11607E+02  0.82676E+00 -0.62830E+01  0.25324E+01  
Fourier min  0.62313E-05  0.29620E+02 -0.19880E+01  0.11983E+01  
Fourier max  0.24441E-02  0.13529E+01  0.56021E+00  0.25537E+01  
Cou_Fou min  0.41838E+00  0.65860E+01  0.90749E+00  0.10578E+01  
Cou_Fou max  0.11608E+02  0.82676E+00 -0.62830E+01  0.25324E+01  
---------------------------------------------------------------
  
  

 CPU TIME FOR THE TIME STEP                5:        0.39242E+01

===============================================================


 INSTANT    0.600000000E+00   TIME STEP NUMBER               6
 ============================================================= 




Code_Saturne: cs_gui_boundary_conditions.c:1074: Warning
The group or attribute "outlet" in the selection
criteria:
"outlet"
 does not correspond to any boundary face.


Code_Saturne: cs_gui_boundary_conditions.c:1074: Warning
The group or attribute "sym" in the selection
criteria:
"sym"
 does not correspond to any boundary face.


Code_Saturne: cs_gui_boundary_conditions.c:1074: Warning
The group or attribute "outlet" in the selection
criteria:
"not (inlet or outlet or wall or sym)"
 does not correspond to any boundary face.


Code_Saturne: cs_gui_boundary_conditions.c:1074: Warning
The group or attribute "outlet" in the selection
criteria:
"not (inlet or outlet or wall or sym or not (inlet or outlet or wall or sym))"
 does not correspond to any boundary face.


Code_Saturne: cs_gui_boundary_conditions.c:1074: Warning
The group or attribute "outlet" in the selection
criteria:
"outlet"
 does not correspond to any boundary face.


Code_Saturne: cs_gui_boundary_conditions.c:1074: Warning
The group or attribute "sym" in the selection
criteria:
"sym"
 does not correspond to any boundary face.


Code_Saturne: cs_gui_boundary_conditions.c:1074: Warning
The group or attribute "outlet" in the selection
criteria:
"not (inlet or outlet or wall or sym)"
 does not correspond to any boundary face.


Code_Saturne: cs_gui_boundary_conditions.c:1074: Warning
The group or attribute "outlet" in the selection
criteria:
"not (inlet or outlet or wall or sym or not (inlet or outlet or wall or sym))"
 does not correspond to any boundary face.


   ** BOUNDARY MASS FLOW INFORMATION
      ------------------------------

---------------------------------------------------------------
Boundary type          Code    Nb faces           Mass flow
---------------------------------------------------------------
Inlet                     2         315        -0.178774069E+04
Smooth wall               5        3150         0.236213097E-15
Rough wall                6           0         0.000000000E+00
Symmetry                  4           0         0.000000000E+00
Free outlet               3         315         0.178774068E+04
Undefined                 1           0         0.000000000E+00
---------------------------------------------------------------


   ** BOUNDARY CONDITIONS FOR SMOOTH WALLS
   ---------------------------------------
------------------------------------------------------------
                                         Minimum     Maximum
------------------------------------------------------------
   Rel velocity at the wall uiptn :  0.40332E+01 0.42540E+01
   Friction velocity        uet   :  0.20180E+00 0.21709E+00
   Friction velocity        uk    :  0.20180E+00 0.21709E+00
   Dimensionless distance   yplus :  0.18131E+04 0.23372E+04
   ------------------------------------------------------   
   Nb of reversal of the velocity at the wall   :          0
   Nb of faces within the viscous sub-layer     :          0
   Total number of wall faces                   :       3150
------------------------------------------------------------



   ** INFORMATION ON CONVERGENCE
      --------------------------
---------------------------------------------------------------
   Variable    Rhs norm      N_iter  Norm. residual      derive
---------------------------------------------------------------
c  Pressure     0.99172E+00     478   0.99775E-08   0.30139E+00 
c  VelocityX    0.67785E+04      27   0.70218E-08   0.33391E-03 
c  VelocityY    0.12022E+02      41   0.74266E-08   0.41638E-04 
c  VelocityZ    0.15865E+02      40   0.82687E-08   0.43199E-04 
c  TempC        0.67265E+05      39   0.83330E-08   0.24258E-21 
---------------------------------------------------------------
  
  

   ** INFORMATION ON VARIABLES
      ------------------------
---------------------------------------------------------------
   Variable      Min. value    Max. value   Min clip   Max clip
---------------------------------------------------------------
v  Pressure    -0.54728E+00   0.12500E+01         --         -- 
v  VelocityX    0.43143E+01   0.53772E+01         --         -- 
v  VelocityY   -0.12210E+00   0.11388E+00         --         -- 
v  VelocityZ   -0.12760E+00   0.14858E+00         --         -- 
v  TempC        0.50000E+02   0.50000E+02      31940          0 
v  CourantNb    0.41835E+00   0.11607E+02          0          0 
v  FourierNb    0.62313E-05   0.24441E-02          0          0 
v  total_pressu 0.10132E+06   0.10133E+06          0          0 
---------------------------------------------------------------
  
  

   ** INFORMATION ON CLIPPINGS
      ------------------------
---------------------------------------------------------------
   Variable    Min wo clips  Max wo clips   Min clip   Max clip
---------------------------------------------------------------
a  TempC        0.15409E+02   0.50000E+02      31940          0 
---------------------------------------------------------------
  
  

   ** INFORMATION ON THE TIME STEP
      -----------------------------
---------------------------------------------------------------
Criterion    Value      at         xc           yc           zc
---------------------------------------------------------------
Courant min  0.41835E+00  0.65860E+01  0.90749E+00  0.10578E+01  
Courant max  0.11607E+02  0.82676E+00 -0.62830E+01  0.25324E+01  
Fourier min  0.62313E-05  0.29620E+02 -0.19880E+01  0.11983E+01  
Fourier max  0.24441E-02  0.13529E+01  0.56021E+00  0.25537E+01  
Cou_Fou min  0.41836E+00  0.65860E+01  0.90749E+00  0.10578E+01  
Cou_Fou max  0.11607E+02  0.82676E+00 -0.62830E+01  0.25324E+01  
---------------------------------------------------------------
  
  

 CPU TIME FOR THE TIME STEP                6:        0.37602E+01

===============================================================


 INSTANT    0.700000000E+00   TIME STEP NUMBER               7
 ============================================================= 




Code_Saturne: cs_gui_boundary_conditions.c:1074: Warning
The group or attribute "outlet" in the selection
criteria:
"outlet"
 does not correspond to any boundary face.


Code_Saturne: cs_gui_boundary_conditions.c:1074: Warning
The group or attribute "sym" in the selection
criteria:
"sym"
 does not correspond to any boundary face.


Code_Saturne: cs_gui_boundary_conditions.c:1074: Warning
The group or attribute "outlet" in the selection
criteria:
"not (inlet or outlet or wall or sym)"
 does not correspond to any boundary face.


Code_Saturne: cs_gui_boundary_conditions.c:1074: Warning
The group or attribute "outlet" in the selection
criteria:
"not (inlet or outlet or wall or sym or not (inlet or outlet or wall or sym))"
 does not correspond to any boundary face.


Code_Saturne: cs_gui_boundary_conditions.c:1074: Warning
The group or attribute "outlet" in the selection
criteria:
"outlet"
 does not correspond to any boundary face.


Code_Saturne: cs_gui_boundary_conditions.c:1074: Warning
The group or attribute "sym" in the selection
criteria:
"sym"
 does not correspond to any boundary face.


Code_Saturne: cs_gui_boundary_conditions.c:1074: Warning
The group or attribute "outlet" in the selection
criteria:
"not (inlet or outlet or wall or sym)"
 does not correspond to any boundary face.


Code_Saturne: cs_gui_boundary_conditions.c:1074: Warning
The group or attribute "outlet" in the selection
criteria:
"not (inlet or outlet or wall or sym or not (inlet or outlet or wall or sym))"
 does not correspond to any boundary face.


   ** BOUNDARY MASS FLOW INFORMATION
      ------------------------------

---------------------------------------------------------------
Boundary type          Code    Nb faces           Mass flow
---------------------------------------------------------------
Inlet                     2         315        -0.178774069E+04
Smooth wall               5        3150         0.143615081E-15
Rough wall                6           0         0.000000000E+00
Symmetry                  4           0         0.000000000E+00
Free outlet               3         315         0.178774068E+04
Undefined                 1           0         0.000000000E+00
---------------------------------------------------------------


   ** BOUNDARY CONDITIONS FOR SMOOTH WALLS
   ---------------------------------------
------------------------------------------------------------
                                         Minimum     Maximum
------------------------------------------------------------
   Rel velocity at the wall uiptn :  0.40161E+01 0.42547E+01
   Friction velocity        uet   :  0.20149E+00 0.21712E+00
   Friction velocity        uk    :  0.20149E+00 0.21712E+00
   Dimensionless distance   yplus :  0.17989E+04 0.23379E+04
   ------------------------------------------------------   
   Nb of reversal of the velocity at the wall   :          0
   Nb of faces within the viscous sub-layer     :          0
   Total number of wall faces                   :       3150
------------------------------------------------------------



   ** INFORMATION ON CONVERGENCE
      --------------------------
---------------------------------------------------------------
   Variable    Rhs norm      N_iter  Norm. residual      derive
---------------------------------------------------------------
c  Pressure     0.10433E+01     520   0.86416E-08   0.28877E+00 
c  VelocityX    0.67785E+04      27   0.68550E-08   0.36291E-03 
c  VelocityY    0.12291E+02      41   0.76446E-08   0.42034E-04 
c  VelocityZ    0.16025E+02      40   0.87351E-08   0.42437E-04 
c  TempC        0.67265E+05      39   0.83615E-08   0.23983E-21 
---------------------------------------------------------------
  
  

   ** INFORMATION ON VARIABLES
      ------------------------
---------------------------------------------------------------
   Variable      Min. value    Max. value   Min clip   Max clip
---------------------------------------------------------------
v  Pressure    -0.62044E+00   0.14750E+01         --         -- 
v  VelocityX    0.42265E+01   0.54230E+01         --         -- 
v  VelocityY   -0.11767E+00   0.12378E+00         --         -- 
v  VelocityZ   -0.13230E+00   0.15668E+00         --         -- 
v  TempC        0.50000E+02   0.50000E+02      31572          0 
v  CourantNb    0.41835E+00   0.11602E+02          0          0 
v  FourierNb    0.62313E-05   0.24441E-02          0          0 
v  total_pressu 0.10132E+06   0.10133E+06          0          0 
---------------------------------------------------------------
  
  

   ** INFORMATION ON CLIPPINGS
      ------------------------
---------------------------------------------------------------
   Variable    Min wo clips  Max wo clips   Min clip   Max clip
---------------------------------------------------------------
a  TempC        0.15409E+02   0.50000E+02      31572          0 
---------------------------------------------------------------
  
  

   ** INFORMATION ON THE TIME STEP
      -----------------------------
---------------------------------------------------------------
Criterion    Value      at         xc           yc           zc
---------------------------------------------------------------
Courant min  0.41835E+00  0.65860E+01  0.90749E+00  0.10578E+01  
Courant max  0.11602E+02  0.82676E+00 -0.62830E+01  0.25324E+01  
Fourier min  0.62313E-05  0.29620E+02 -0.19880E+01  0.11983E+01  
Fourier max  0.24441E-02  0.13529E+01  0.56021E+00  0.25537E+01  
Cou_Fou min  0.41835E+00  0.65860E+01  0.90749E+00  0.10578E+01  
Cou_Fou max  0.11602E+02  0.82676E+00 -0.62830E+01  0.25324E+01  
---------------------------------------------------------------
  
  

 CPU TIME FOR THE TIME STEP                7:        0.38322E+01

===============================================================


 INSTANT    0.800000000E+00   TIME STEP NUMBER               8
 ============================================================= 




Code_Saturne: cs_gui_boundary_conditions.c:1074: Warning
The group or attribute "outlet" in the selection
criteria:
"outlet"
 does not correspond to any boundary face.


Code_Saturne: cs_gui_boundary_conditions.c:1074: Warning
The group or attribute "sym" in the selection
criteria:
"sym"
 does not correspond to any boundary face.


Code_Saturne: cs_gui_boundary_conditions.c:1074: Warning
The group or attribute "outlet" in the selection
criteria:
"not (inlet or outlet or wall or sym)"
 does not correspond to any boundary face.


Code_Saturne: cs_gui_boundary_conditions.c:1074: Warning
The group or attribute "outlet" in the selection
criteria:
"not (inlet or outlet or wall or sym or not (inlet or outlet or wall or sym))"
 does not correspond to any boundary face.


Code_Saturne: cs_gui_boundary_conditions.c:1074: Warning
The group or attribute "outlet" in the selection
criteria:
"outlet"
 does not correspond to any boundary face.


Code_Saturne: cs_gui_boundary_conditions.c:1074: Warning
The group or attribute "sym" in the selection
criteria:
"sym"
 does not correspond to any boundary face.


Code_Saturne: cs_gui_boundary_conditions.c:1074: Warning
The group or attribute "outlet" in the selection
criteria:
"not (inlet or outlet or wall or sym)"
 does not correspond to any boundary face.


Code_Saturne: cs_gui_boundary_conditions.c:1074: Warning
The group or attribute "outlet" in the selection
criteria:
"not (inlet or outlet or wall or sym or not (inlet or outlet or wall or sym))"
 does not correspond to any boundary face.


   ** BOUNDARY MASS FLOW INFORMATION
      ------------------------------

---------------------------------------------------------------
Boundary type          Code    Nb faces           Mass flow
---------------------------------------------------------------
Inlet                     2         315        -0.178774069E+04
Smooth wall               5        3150         0.201778511E-15
Rough wall                6           0         0.000000000E+00
Symmetry                  4           0         0.000000000E+00
Free outlet               3         315         0.178774068E+04
Undefined                 1           0         0.000000000E+00
---------------------------------------------------------------


   ** BOUNDARY CONDITIONS FOR SMOOTH WALLS
   ---------------------------------------
------------------------------------------------------------
                                         Minimum     Maximum
------------------------------------------------------------
   Rel velocity at the wall uiptn :  0.39919E+01 0.42560E+01
   Friction velocity        uet   :  0.19995E+00 0.21718E+00
   Friction velocity        uk    :  0.19995E+00 0.21718E+00
   Dimensionless distance   yplus :  0.17937E+04 0.23383E+04
   ------------------------------------------------------   
   Nb of reversal of the velocity at the wall   :          0
   Nb of faces within the viscous sub-layer     :          0
   Total number of wall faces                   :       3150
------------------------------------------------------------



   ** INFORMATION ON CONVERGENCE
      --------------------------
---------------------------------------------------------------
   Variable    Rhs norm      N_iter  Norm. residual      derive
---------------------------------------------------------------
c  Pressure     0.10119E+01     484   0.99185E-08   0.28196E+00 
c  VelocityX    0.67778E+04      27   0.70629E-08   0.34935E-03 
c  VelocityY    0.13206E+02      40   0.95912E-08   0.41498E-04 
c  VelocityZ    0.17087E+02      40   0.75056E-08   0.42377E-04 
c  TempC        0.67265E+05      39   0.83748E-08   0.16848E-21 
---------------------------------------------------------------
  
  

   ** INFORMATION ON VARIABLES
      ------------------------
---------------------------------------------------------------
   Variable      Min. value    Max. value   Min clip   Max clip
---------------------------------------------------------------
v  Pressure    -0.59409E+00   0.12406E+01         --         -- 
v  VelocityX    0.42872E+01   0.54606E+01         --         -- 
v  VelocityY   -0.13488E+00   0.12433E+00         --         -- 
v  VelocityZ   -0.14977E+00   0.15559E+00         --         -- 
v  TempC        0.50000E+02   0.50000E+02      31432          0 
v  CourantNb    0.41833E+00   0.11602E+02          0          0 
v  FourierNb    0.62313E-05   0.24441E-02          0          0 
v  total_pressu 0.10132E+06   0.10133E+06          0          0 
---------------------------------------------------------------
  
  

   ** INFORMATION ON CLIPPINGS
      ------------------------
---------------------------------------------------------------
   Variable    Min wo clips  Max wo clips   Min clip   Max clip
---------------------------------------------------------------
a  TempC        0.15409E+02   0.50000E+02      31432          0 
---------------------------------------------------------------
  
  

   ** INFORMATION ON THE TIME STEP
      -----------------------------
---------------------------------------------------------------
Criterion    Value      at         xc           yc           zc
---------------------------------------------------------------
Courant min  0.41833E+00  0.65860E+01  0.90749E+00  0.10578E+01  
Courant max  0.11602E+02  0.82676E+00 -0.62830E+01  0.25324E+01  
Fourier min  0.62313E-05  0.29620E+02 -0.19880E+01  0.11983E+01  
Fourier max  0.24441E-02  0.13529E+01  0.56021E+00  0.25537E+01  
Cou_Fou min  0.41834E+00  0.65860E+01  0.90749E+00  0.10578E+01  
Cou_Fou max  0.11603E+02  0.82676E+00 -0.62830E+01  0.25324E+01  
---------------------------------------------------------------
  
  

 CPU TIME FOR THE TIME STEP                8:        0.37722E+01

[...]
   Rel velocity at the wall uiptn :  0.39780E+01 0.42547E+01
   Friction velocity        uet   :  0.19953E+00 0.21712E+00
   Friction velocity        uk    :  0.19953E+00 0.21712E+00
   Dimensionless distance   yplus :  0.17836E+04 0.23395E+04
   ------------------------------------------------------   
   Nb of reversal of the velocity at the wall   :          0
   Nb of faces within the viscous sub-layer     :          0
   Total number of wall faces                   :       3150
------------------------------------------------------------


@                                                            
@@@@@@@@@@@@@@@@@@@@@@@@@@@@@@@@@@@@@@@@@@@@@@@@@@@@@@@@@@@@@
@                                                            
@ @@ WARNING: MESH NOT ENOUGH REFINED AT THE WALL            
@    ========                                                
@    The mesh does not seem to be enough refined at the wall 
@      to be able to run a laminar simulation.               
@                                                            
@    The last time step at which too large values for the    
@      dimensionless distance to the wall (yplus) have been  
@      observed is the time step          9
@                                                            
@    The minimum value for yplus must be lower than the      
@      limit value YPLULI =    0.23810E+01
@                                                            
@    Have a look at the distribution of yplus at the wall    
@      (with EnSight for example) to conclude on the way     
@      the results quality might be affected.                
@                                                            
@    This warning is only printed at the first two           
@      occurences of the problem and at the last time step   
@      of the calculation. The vanishing of the message does 
@      not necessarily mean the vanishing of the problem.    
@                                                            
@@@@@@@@@@@@@@@@@@@@@@@@@@@@@@@@@@@@@@@@@@@@@@@@@@@@@@@@@@@@@
@                                                            


   ** INFORMATION ON CONVERGENCE
      --------------------------
---------------------------------------------------------------
   Variable    Rhs norm      N_iter  Norm. residual      derive
---------------------------------------------------------------
c  Pressure     0.92010E+00     520   0.88410E-08   0.24765E+00 
c  VelocityX    0.67776E+04      27   0.66780E-08   0.31417E-03 
c  VelocityY    0.13009E+02      41   0.70987E-08   0.37387E-04 
c  VelocityZ    0.16359E+02      40   0.81445E-08   0.40353E-04 
c  TempC        0.67265E+05      39   0.83907E-08   0.16776E-21 
---------------------------------------------------------------
  
  

   ** INFORMATION ON VARIABLES
      ------------------------
---------------------------------------------------------------
   Variable      Min. value    Max. value   Min clip   Max clip
---------------------------------------------------------------
v  Pressure    -0.63133E+00   0.11941E+01         --         -- 
v  VelocityX    0.43078E+01   0.54939E+01         --         -- 
v  VelocityY   -0.13385E+00   0.12985E+00         --         -- 
v  VelocityZ   -0.15344E+00   0.14137E+00         --         -- 
v  TempC        0.50000E+02   0.50000E+02      31222          0 
v  CourantNb    0.41832E+00   0.11602E+02          0          0 
v  FourierNb    0.62313E-05   0.24441E-02          0          0 
v  total_pressu 0.10132E+06   0.10133E+06          0          0 
---------------------------------------------------------------
  
  

   ** INFORMATION ON CLIPPINGS
      ------------------------
---------------------------------------------------------------
   Variable    Min wo clips  Max wo clips   Min clip   Max clip
---------------------------------------------------------------
a  TempC        0.15409E+02   0.50000E+02      31222          0 
---------------------------------------------------------------
  
  

   ** INFORMATION ON THE TIME STEP
      -----------------------------
---------------------------------------------------------------
Criterion    Value      at         xc           yc           zc
---------------------------------------------------------------
Courant min  0.41832E+00  0.65860E+01  0.90749E+00  0.10578E+01  
Courant max  0.11602E+02  0.82676E+00 -0.62830E+01  0.25324E+01  
Fourier min  0.62313E-05  0.29620E+02 -0.19880E+01  0.11983E+01  
Fourier max  0.24441E-02  0.13529E+01  0.56021E+00  0.25537E+01  
Cou_Fou min  0.41833E+00  0.65860E+01  0.90749E+00  0.10578E+01  
Cou_Fou max  0.11602E+02  0.82676E+00 -0.62830E+01  0.25324E+01  
---------------------------------------------------------------
  
  

 CPU TIME FOR THE TIME STEP                9:        0.37762E+01

===============================================================


 INSTANT    0.100000000E+01   TIME STEP NUMBER              10
 ============================================================= 




Code_Saturne: cs_gui_boundary_conditions.c:1074: Warning
The group or attribute "outlet" in the selection
criteria:
"outlet"
 does not correspond to any boundary face.


Code_Saturne: cs_gui_boundary_conditions.c:1074: Warning
The group or attribute "sym" in the selection
criteria:
"sym"
 does not correspond to any boundary face.


Code_Saturne: cs_gui_boundary_conditions.c:1074: Warning
The group or attribute "outlet" in the selection
criteria:
"not (inlet or outlet or wall or sym)"
 does not correspond to any boundary face.


Code_Saturne: cs_gui_boundary_conditions.c:1074: Warning
The group or attribute "outlet" in the selection
criteria:
"not (inlet or outlet or wall or sym or not (inlet or outlet or wall or sym))"
 does not correspond to any boundary face.


Code_Saturne: cs_gui_boundary_conditions.c:1074: Warning
The group or attribute "outlet" in the selection
criteria:
"outlet"
 does not correspond to any boundary face.


Code_Saturne: cs_gui_boundary_conditions.c:1074: Warning
The group or attribute "sym" in the selection
criteria:
"sym"
 does not correspond to any boundary face.


Code_Saturne: cs_gui_boundary_conditions.c:1074: Warning
The group or attribute "outlet" in the selection
criteria:
"not (inlet or outlet or wall or sym)"
 does not correspond to any boundary face.


Code_Saturne: cs_gui_boundary_conditions.c:1074: Warning
The group or attribute "outlet" in the selection
criteria:
"not (inlet or outlet or wall or sym or not (inlet or outlet or wall or sym))"
 does not correspond to any boundary face.


   ** BOUNDARY MASS FLOW INFORMATION
      ------------------------------

---------------------------------------------------------------
Boundary type          Code    Nb faces           Mass flow
---------------------------------------------------------------
Inlet                     2         315        -0.178774069E+04
Smooth wall               5        3150        -0.378758445E-16
Rough wall                6           0         0.000000000E+00
Symmetry                  4           0         0.000000000E+00
Free outlet               3         315         0.178774068E+04
Undefined                 1           0         0.000000000E+00
---------------------------------------------------------------


   ** BOUNDARY CONDITIONS FOR SMOOTH WALLS
   ---------------------------------------
------------------------------------------------------------
                                         Minimum     Maximum
------------------------------------------------------------
   Rel velocity at the wall uiptn :  0.39501E+01 0.42563E+01
   Friction velocity        uet   :  0.20029E+00 0.21706E+00
   Friction velocity        uk    :  0.20029E+00 0.21706E+00
   Dimensionless distance   yplus :  0.17725E+04 0.23407E+04
   ------------------------------------------------------   
   Nb of reversal of the velocity at the wall   :          0
   Nb of faces within the viscous sub-layer     :          0
   Total number of wall faces                   :       3150
------------------------------------------------------------


@                                                            
@@@@@@@@@@@@@@@@@@@@@@@@@@@@@@@@@@@@@@@@@@@@@@@@@@@@@@@@@@@@@
@                                                            
@ @@ WARNING: MESH NOT ENOUGH REFINED AT THE WALL            
@    ========                                                
@    The mesh does not seem to be enough refined at the wall 
@      to be able to run a laminar simulation.               
@                                                            
@    The last time step at which too large values for the    
@      dimensionless distance to the wall (yplus) have been  
@      observed is the time step         10
@                                                            
@    The minimum value for yplus must be lower than the      
@      limit value YPLULI =    0.23810E+01
@                                                            
@    Have a look at the distribution of yplus at the wall    
@      (with EnSight for example) to conclude on the way     
@      the results quality might be affected.                
@                                                            
@    This warning is only printed at the first two           
@      occurences of the problem and at the last time step   
@      of the calculation. The vanishing of the message does 
@      not necessarily mean the vanishing of the problem.    
@                                                            
@@@@@@@@@@@@@@@@@@@@@@@@@@@@@@@@@@@@@@@@@@@@@@@@@@@@@@@@@@@@@
@                                                            



 Write final restart files
   checkpoint at iteration         10, Physical time    0.10000E+01


   ** Writing the main restart file
      -----------------------------

 Start writing
   End writing the dimensions                           
   End writing the options                              
   End writing the main variables                       
 End writing

   ** Writing the auxilliary restart file
      -----------------------------------

 Start writing
   End writing the dimensions and options               
   End writing the physical properties                  
   End writing the time step                            
   End writing the mass fluxes                          
   End writing the boundary conditions                  
 End writing


 CPU time for restart files:    0.24002E-01



   ** INFORMATION ON CONVERGENCE
      --------------------------
---------------------------------------------------------------
   Variable    Rhs norm      N_iter  Norm. residual      derive
---------------------------------------------------------------
c  Pressure     0.91413E+00     494   0.87273E-08   0.23908E+00 
c  VelocityX    0.67770E+04      26   0.99737E-08   0.31272E-03 
c  VelocityY    0.13079E+02      40   0.97117E-08   0.38098E-04 
c  VelocityZ    0.16616E+02      40   0.78229E-08   0.38213E-04 
c  TempC        0.67265E+05      39   0.83986E-08   0.12498E-21 
---------------------------------------------------------------
  
  

   ** INFORMATION ON VARIABLES
      ------------------------
---------------------------------------------------------------
   Variable      Min. value    Max. value   Min clip   Max clip
---------------------------------------------------------------
v  Pressure    -0.70610E+00   0.11903E+01         --         -- 
v  VelocityX    0.43100E+01   0.55269E+01         --         -- 
v  VelocityY   -0.13764E+00   0.12791E+00         --         -- 
v  VelocityZ   -0.16025E+00   0.14649E+00         --         -- 
v  TempC        0.50000E+02   0.50000E+02      31019          0 
v  CourantNb    0.41830E+00   0.11604E+02          0          0 
v  FourierNb    0.62313E-05   0.24441E-02          0          0 
v  total_pressu 0.10132E+06   0.10133E+06          0          0 
---------------------------------------------------------------
  
  

   ** INFORMATION ON CLIPPINGS
      ------------------------
---------------------------------------------------------------
   Variable    Min wo clips  Max wo clips   Min clip   Max clip
---------------------------------------------------------------
a  TempC        0.15409E+02   0.50000E+02      31019          0 
---------------------------------------------------------------
  
  

   ** INFORMATION ON THE TIME STEP
      -----------------------------
---------------------------------------------------------------
Criterion    Value      at         xc           yc           zc
---------------------------------------------------------------
Courant min  0.41830E+00  0.65860E+01  0.90749E+00  0.10578E+01  
Courant max  0.11604E+02  0.82676E+00 -0.62830E+01  0.25324E+01  
Fourier min  0.62313E-05  0.29620E+02 -0.19880E+01  0.11983E+01  
Fourier max  0.24441E-02  0.13529E+01  0.56021E+00  0.25537E+01  
Cou_Fou min  0.41831E+00  0.65860E+01  0.90749E+00  0.10578E+01  
Cou_Fou max  0.11604E+02  0.82676E+00 -0.62830E+01  0.25324E+01  
---------------------------------------------------------------
  
  

 CPU TIME FOR THE TIME STEP               10:        0.37962E+01

===============================================================



===============================================================



                 FINAL STAGE OF THE CALCULATION              
                 ==============================              


 =========================================================== 




   ** CPU TIME FOR FINAL WRITING:    0.00000E+00
      ---------------------------                           



 =========================================================== 




                      END OF CALCULATION                     
                      ==================                     


===============================================================

Summary of multigrid for "Pressure":

  Smoother: Conjugate gradient
  Coarsest level solver:       Conjugate gradient
  Number of constructions:          10
  Number of resolutions:            20
  Number of levels:
    minimum:                        8
    maximum:                        8
    mean:                           8
  Coarse grid size (n cells):
    minimum:                        79
    maximum:                        80
    mean:                           79
  Coarse grid ranks:
    minimum:                        2
    maximum:                        2
  Number of cycles:
    minimum:                        8
    maximum:                        21
    mean:                           13
  Number of iterations:
    on finest grid:
      minimum:                      88
      maximum:                      227
      mean:                         148
    on coarsest grid:
      minimum:                      12
      maximum:                      103
      mean:                         37
    total on grids:
      minimum:                      1978
      maximum:                      6182
      mean:                         3806
  Associated times (construction, resolution)
    total elapsed:                         0.483        14.409
    Min local total CPU time:              0.448        13.421
    Max local total CPU time:              0.460        13.585

Summary of resolutions for TempC (Jacobi):

  Number of calls:                  10
  Minimum number of iterations:     39
  Maximum number of iterations:     39
  Mean number of iterations:        39
  Total elapsed time:                      0.817
  Min local total CPU time:                0.756
  Max local total CPU time:                0.776

Summary of resolutions for VelocityX (Jacobi):

  Number of calls:                  10
  Minimum number of iterations:     3
  Maximum number of iterations:     27
  Mean number of iterations:        24
  Total elapsed time:                      0.545
  Min local total CPU time:                0.504
  Max local total CPU time:                0.504

Summary of resolutions for VelocityY (Jacobi):

  Number of calls:                  10
  Minimum number of iterations:     3
  Maximum number of iterations:     44
  Mean number of iterations:        37
  Total elapsed time:                      0.819
  Min local total CPU time:                0.764
  Max local total CPU time:                0.768

Summary of resolutions for VelocityZ (Jacobi):

  Number of calls:                  10
  Minimum number of iterations:     3
  Maximum number of iterations:     43
  Mean number of iterations:        37
  Total elapsed time:                      0.810
  Min local total CPU time:                0.756
  Max local total CPU time:                0.756

Summary of gradient computations pour "Var. 0" (Iterative reconstruction):

  Number of calls:                  10
  Total elapsed time:                      1.025
  Min local total CPU time:                0.952
  Max local total CPU time:                0.956

Summary of gradient computations pour "Var. 1" (Iterative reconstruction):

  Number of calls:                  60
  Total elapsed time:                      5.388
  Min local total CPU time:                4.996
  Max local total CPU time:                5.048

Summary of gradient computations pour "Var. 2" (Iterative reconstruction):

  Number of calls:                  39
  Total elapsed time:                      3.761
  Min local total CPU time:                3.368
  Max local total CPU time:                3.484

Summary of gradient computations pour "Var. 3" (Iterative reconstruction):

  Number of calls:                  39
  Total elapsed time:                      3.968
  Min local total CPU time:                3.620
  Max local total CPU time:                3.704

Summary of gradient computations pour "Var. 4" (Iterative reconstruction):

  Number of calls:                  39
  Total elapsed time:                      3.949
  Min local total CPU time:                3.596
  Max local total CPU time:                3.704

Summary of gradient computations pour "Var. 5" (Iterative reconstruction):

  Number of calls:                  11
  Total elapsed time:                      1.154
  Min local total CPU time:                1.072
  Max local total CPU time:                1.076

 Destroying structures and ending computation

Mesh entity selections by criteria statistics:
  entity type     evaluations  elapsed time
  -----------------------------------------
  cells                    13       0.06340
  interior faces            0       0.00000
  boundary faces          126       0.00030

Writing of "results_init_5_smalldisk" (EnSight Gold) summary:

  CPU time for meshes:                     0.008
  CPU time for variables:                  0.020

  Elapsed time for meshes:                 0.008
  Elapsed time for variables:              0.020

Code_Saturne IO files read:

  mesh_input
    global:      0.00092 s,        1.875 KiB
    local:       0.00862 s,        4.998 MiB
    open:        0.03248 s, 2 open(s)

Code_Saturne IO files written:

  checkpoint/auxiliary
    global:      0.00217 s,        3.875 KiB
    local:       0.00346 s,        1.599 MiB
    open:        0.00873 s, 1 open(s)
  checkpoint/main
    global:      0.00500 s,        2.500 KiB
    local:       0.00777 s,        3.171 MiB
    open:        0.01673 s, 1 open(s)

Calculation time summary:

  User CPU time:             37.130 s
  System CPU time:            1.256 s
  Total CPU time:            77.381 s

  Elapsed time:              41.618 s
  CPU / elapsed time          0.922

Memory use summary:

  Total memory used:                             563.633 MiB
                             local minimum:      278.453 MiB  (rank 1)
                             local maximum:      285.180 MiB  (rank 0)
  Theoretical instrumented dynamic memory:        54.013 MiB
                             local minimum:       26.980 MiB  (rank 0)
                             local maximum:       27.032 MiB  (rank 1)

