/usr/lib/code_saturne/cs_preprocess --log --out mesh_input 
/home/vance/Downloads/Capstone/MCCapstone13-14/CFDTut/DUCT/MESH/mesh_d.med 

  .------------------------------.
  |                              |
  |   Code_Saturne Preprocessor  |
  |                              |
  `------------------------------'

  code_saturne version 2.1.0   (built Thu 26 Jan 2012 08:41:48 PM EST)

  CGNS 2.5.5 file format support
  MED 3.0.3 (HDF5 1.8.4) file format support
  Reading of compressed files ('.gz') with Zlib 1.2.3.4



Case configuration
------------------

  Date                : Mon 07 Oct 2013 12:14:16 PM EDT
  System              : Linux 3.5.0-41-generic
  Machine             : studio-ub
  Processor           : Intel(R) Core(TM)2 Duo CPU     P8700  @ 2.53GHz
  Memory              : 8142688
  User                : vance (Vance Turnewitsch)
  Directory           : /home/vance/Downloads/Capstone/MCCapstone13-14/CFDTut/DUCT/2D/RESU/20131007-1214

  Case name           : preprocess
  Mesh file           : /home/vance/Downloads/Capstone/MCCapstone13-14/CFDTut/DUCT/MESH/mesh_d.med



Reading mesh from file in MED (EDF/CEA) format
----------------------
  Mesh file: /home/vance/Downloads/Capstone/MCCapstone13-14/CFDTut/DUCT/MESH/mesh_d.med


  Mesh name: mesh_d

  Number of vertices                          :    25602

Warning
=======
The MED mesh contains 1204 elements of type seg2
which are ignored by the Preprocessor.

  Number of faces                             :    25600
                                   Family 6   :       50
                                   Family 7   :       50
                                   Family 8   :      250
                                   Family 9   :      250
                                   Family 10  :    25000
  Number of cells                             :    12500
                                   Family 0   :    12500

  Wall-clock time: 0.097148 s; CPU time: 0.024001 s


Done reading mesh
-----------------
  Theoretical mesh size:               890.981 Kb
  Theoretical current memory:            1.456 Mb
  Theoretical peak memory:               2.433 Mb
  Total memory used:                    60.051 Mb

  Domain coordinate extents:

  [ 0.00000e+00,  0.00000e+00,  0.00000e+00]
  [ 1.00000e-01,  5.00000e-03,  1.00000e-03]
  Number of elements                    quad4 :    25600
  Number of elements                    hexa8 :    12500



Defining families
-----------------


  Element orientation check.


End of conversion to descending connectivity
--------------------------------------------
  Theoretical mesh size:                 1.246 Mb
  Theoretical current memory:            1.832 Mb
  Theoretical peak memory:               4.619 Mb
  Total memory used:                    62.559 Mb


Main mesh properties
--------------------

  Number of cells:                                 12500
  Number of internal faces:                        24700
  Number of boundary faces:                        25600
  Number of vertices:                              25602


Definition of face and cell families
------------------------------------

  Family 1
         Group "bottom"
  Number of boundary faces :      250
  Family 2
         Group "inlet"
  Number of boundary faces :       50
  Family 3
         Group "outlet"
  Number of boundary faces :       50
  Family 4
         Group "sym"
  Number of boundary faces :    25000
  Family 5
         Group "top"
  Number of boundary faces :      250
  Family 5
         Default family
         (no group)
  Number of cells          :    12500
  Number of internal faces :    24700


Write output for Kernel
-----------------------

  Opening file: mesh_input

  Wrote: "start_block:dimensions"
  Wrote: "n_cells"                         ; Type: "u8"; Size: 1
  Wrote: "n_faces"                         ; Type: "u8"; Size: 1
  Wrote: "n_vertices"                      ; Type: "u8"; Size: 1
  Wrote: "face_vertices_size"              ; Type: "u8"; Size: 1
  Wrote: "n_group_classes"                 ; Type: "i4"; Size: 1
  Wrote: "n_group_class_props_max"         ; Type: "i4"; Size: 1
  Wrote: "n_groups"                        ; Type: "u8"; Size: 1
  Wrote: "group_name_index"                ; Type: "i4"; Size: 6
  Wrote: "group_name"                      ; Type: "c "; Size: 28
  Wrote: "group_class_properties"          ; Type: "i4"; Size: 6
  Wrote: "end_block:dimensions"
  Wrote: "start_block:data"
  Wrote: "face_cells"                      ; Type: "i4"; Size: 100600
  Wrote: "cell_group_class_id"             ; Type: "i4"; Size: 12500
  Wrote: "face_group_class_id"             ; Type: "i4"; Size: 50300
  Wrote: "face_vertices_index"             ; Type: "u8"; Size: 50301
  Wrote: "face_vertices"                   ; Type: "i4"; Size: 201200
  Wrote: "vertex_coords"                   ; Type: "r8"; Size: 76806
  Wrote: "end_block:data"
  Wrote: "EOF"

  Closing file: mesh_input


Time and memory summary
-----------------------

  User CPU time                       (sec)   :        0.06
  System CPU time                     (sec)   :        0.00
  Total time                          (sec)   :        0.14
  Total CPU time / Total time                 :        0.47

Memory use summary:

  Total memory used:                                  62.559 Mb
  Theoretical instrumented dynamic memory:             4.619 Mb


  .-----------------------.
  |                       |
  |  Preprocessor finish  |
  |                       |
  `-----------------------'


