/usr/lib/code_saturne/cs_preprocess --log --out mesh_input 
/home/vance/Downloads/Capstone/MCCapstone13-14/pythonlib/cluster/code_saturne/MESHES/WindTunnel_HD.med 

  .------------------------------.
  |                              |
  |   Code_Saturne Preprocessor  |
  |                              |
  `------------------------------'

  code_saturne version 2.1.0   (built Thu 26 Jan 2012 08:41:48 PM EST)

  CGNS 2.5.5 file format support
  MED 3.0.3 (HDF5 1.8.4) file format support
  Reading of compressed files ('.gz') with Zlib 1.2.3.4



Case configuration
------------------

  Date                : Tue 04 Feb 2014 08:29:11 PM EST
  System              : Linux 3.5.0-45-generic
  Machine             : studio-ub
  Processor           : Intel(R) Core(TM)2 Duo CPU     P8700  @ 2.53GHz
  Memory              : 8142684
  User                : vance (Vance Turnewitsch)
  Directory           : /home/vance/Downloads/Capstone/MCCapstone13-14/pythonlib/cluster/code_saturne/STUDIES/Study1/CASE1/RESU/20140204-2029

  Case name           : preprocess
  Mesh file           : /home/vance/Downloads/Capstone/MCCapstone13-14/pythonlib/cluster/code_saturne/MESHES/WindTunnel_HD.med



Reading mesh from file in MED (EDF/CEA) format
----------------------
  Mesh file: /home/vance/Downloads/Capstone/MCCapstone13-14/pythonlib/cluster/code_saturne/MESHES/WindTunnel_HD.med


  Mesh name: WindTunnel_HD

  Number of vertices                          :    36113

Warning
=======
The MED mesh contains 226 elements of type seg2
which are ignored by the Preprocessor.

  Number of faces                             :    32046
                                   Family 6   :    29176
                                   Family 7   :     1435
                                   Family 8   :     1435
  Number of cells                             :   163228
                                   Family 0   :   163228

  Wall-clock time: 0.056541 s; CPU time: 0.056003 s


Done reading mesh
-----------------
  Theoretical mesh size:                 2.980 Mb
  Theoretical current memory:            3.807 Mb
  Theoretical peak memory:               9.032 Mb
  Total memory used:                    67.238 Mb

  Domain coordinate extents:

  [ 0.00000e+00, -9.99997e+00, -1.00000e+01]
  [ 1.00000e+02,  9.99997e+00,  1.00000e+01]
  Number of elements                    tria3 :    32046
  Number of elements                   tetra4 :   163228



Defining families
-----------------


  Element orientation check.


End of conversion to descending connectivity
--------------------------------------------
  Theoretical mesh size:                 7.717 Mb
  Theoretical current memory:            8.543 Mb
  Theoretical peak memory:              24.618 Mb
  Total memory used:                    85.293 Mb


Main mesh properties
--------------------

  Number of cells:                                163228
  Number of internal faces:                       310433
  Number of boundary faces:                        32046
  Number of vertices:                              36113


Definition of face and cell families
------------------------------------

  Family 1
         Group "inlet"
  Number of boundary faces :     1435
  Family 2
         Group "outlet"
  Number of boundary faces :     1435
  Family 3
         Group "wall"
  Number of boundary faces :    29176
  Family 3
         Default family
         (no group)
  Number of cells          :   163228
  Number of internal faces :   310433


Write output for Kernel
-----------------------

  Opening file: mesh_input

  Wrote: "start_block:dimensions"
  Wrote: "n_cells"                         ; Type: "u8"; Size: 1
  Wrote: "n_faces"                         ; Type: "u8"; Size: 1
  Wrote: "n_vertices"                      ; Type: "u8"; Size: 1
  Wrote: "face_vertices_size"              ; Type: "u8"; Size: 1
  Wrote: "n_group_classes"                 ; Type: "i4"; Size: 1
  Wrote: "n_group_class_props_max"         ; Type: "i4"; Size: 1
  Wrote: "n_groups"                        ; Type: "u8"; Size: 1
  Wrote: "group_name_index"                ; Type: "i4"; Size: 4
  Wrote: "group_name"                      ; Type: "c "; Size: 18
  Wrote: "group_class_properties"          ; Type: "i4"; Size: 4
  Wrote: "end_block:dimensions"
  Wrote: "start_block:data"
  Wrote: "face_cells"                      ; Type: "i4"; Size: 684958
  Wrote: "cell_group_class_id"             ; Type: "i4"; Size: 163228
  Wrote: "face_group_class_id"             ; Type: "i4"; Size: 342479
  Wrote: "face_vertices_index"             ; Type: "u8"; Size: 342480
  Wrote: "face_vertices"                   ; Type: "i4"; Size: 1027437
  Wrote: "vertex_coords"                   ; Type: "r8"; Size: 108339
  Wrote: "end_block:data"
  Wrote: "EOF"

  Closing file: mesh_input


Time and memory summary
-----------------------

  User CPU time                       (sec)   :        0.73
  System CPU time                     (sec)   :        0.06
  Total time                          (sec)   :        0.79
  Total CPU time / Total time                 :        1.00

Memory use summary:

  Total memory used:                                  85.293 Mb
  Theoretical instrumented dynamic memory:            24.618 Mb


  .-----------------------.
  |                       |
  |  Preprocessor finish  |
  |                       |
  `-----------------------'


