command: 
 /usr/lib/code_saturne/cs_solver --param betzlimit_cs_study.xml --mpi

***************************************************************

                                  (R)
                      Code_Saturne

                      Version 2.1.0


  Copyright (C) 1998-2011 EDF S.A., France

  build Thu 26 Jan 2012 08:44:04 PM EST
  MPI version 2.1 (Open MPI 1.4.3)


  The Code_Saturne CFD tool  is free software;
  you can redistribute it and/or modify it under the terms
  of the GNU General Public License as published by the
  Free Software Foundation; either version 2 of the License,
  or (at your option) any later version.

  The Code_Saturne CFD tool is distributed in the hope that
  it will be useful, but WITHOUT ANY WARRANTY; without even
  the implied warranty of MERCHANTABILITY or FITNESS FOR A
  PARTICULAR PURPOSE.  See the GNU General Public License
  for more details.

***************************************************************


Local case configuration:

  Date:              Wed 20 Nov 2013 09:06:50 AM EST
  System:            Linux 3.5.0-43-generic
  Machine:           studio-ub
  Processor:         Intel(R) Core(TM)2 Duo CPU     P8700  @ 2.53GHz
  Memory:            7951 MB
  User:              vance (Vance Turnewitsch)
  Directory:         /home/vance/Downloads/Capstone/MCCapstone13-14/CFDTut/BetzLimitTesting/betzlimit_testing/RESU/20131120-0906
  MPI ranks:         2 (appnum attribute: 0)
  I/O mode:          MPI-IO, explicit offsets

===============================================================

                   CALCULATION PREPARATION
                   =======================


 ===========================================================



 Reading metadata from file: "mesh_input"

 No error detected during the data verification
                              (interface, usini1 and others).


 ===========================================================

               CALCULATION PARAMETERS SUMMARY
               ==============================

 -----------------------------------------------------------


 ** DIMENSIONS
    ----------

 --- Geometry
       NPRFML =              1 (Nb max. family properties   )
       NFML   =              7 (Nb families                 )

 --- Physics
       NVAR   =              5 (Nb variables                )
       NSCAL  =              1 (Nb scalars                  )
       NSCAUS =              1 (Nb user scalars             )
       NSCAPP =              0 (Nb specific physics scalars )
       NPROCE =              6 (Nb cell properties          )
       NPROFA =              1 (Nb internal face properties )
       NPROFB =              2 (Nb boundary face properties )


 -----------------------------------------------------------


 ** PHYSICAL PROPERTIES
    -------------------

       GX     =    0.00000E+00 (Gravity x component         )
       GY     =    0.00000E+00 (Gravity y component         )
       GZ     =    0.00000E+00 (Gravity z component         )

       OMEGAX =    0.00000E+00 (Rotation vector x component )
       OMEGAY =    0.00000E+00 (Rotation vector y component )
       OMEGAZ =    0.00000E+00 (Rotation vector z component )
       ICORIO =          0 (Coriolis source terms       )

  -- Continuous phase: 

       RO0    =    0.11786E+01 (Reference density           )
       VISCL0 =    0.18300E-04 (Ref. molecular dyn. visc.   )
       CP0    =    0.20600E+04 (Ref. specific heat          )
       ICP    =              0 (> 0: variable CP (usphyv)   )
       P0     =    0.10132E+06 (Ref. total pressure         )
       PRED0  =    0.00000E+00 (Ref. reduced pressure       )
       T0     =    0.00000E+00 (Ref. temperature            )

       IROVAR =              1 (Density constant(0) or not(1)
       IVIVAR =              1 (Molec. visc cst.(0) or not(1)

       Initial reference point for pressure
       XYZP0  =    0.00000E+00   0.00000E+00   0.00000E+00

 -----------------------------------------------------------


 ** TURBULENCE
    ----------

 --- Continuous phase: 

   - Commons                                                 
       ITURB  =              0 (Turbulence model            )
       IDEUCH =              0 (0: one-scale model          )
                               (1: two-scale model          )
                               (2: invariant wall function  )
       YPLULI =    0.23810E+01 (Limit Y+                    )
       ILOGPO =              1 (0: power law (forbidden for
                                              k-epsilon)    )
                               (1: one-scale log law        )
       IGRHOK =              0 (1: computed Grad(rho k)     )
       ISCALT =              1 (Temperature salar number    )

 --- Constants

   - Commons                                                 
       XKAPPA =    0.42000E+00 (Von Karman constant         )
       CSTLOG =    0.52000E+01 (U+=Log(y+)/kappa +CSTLOG    )
       APOW   =    0.83000E+01 (U+=APOW (y+)**BPOW (W&W law))
       BPOW   =    0.14286E+00 (U+=APOW (y+)**BPOW (W&W law))


 -----------------------------------------------------------


 ** SECONDARY VISCOSITY
    -------------------

 --- Continuous phase:          1
       IVISSE = 

 -----------------------------------------------------------


 ** TIME STEPPING
    -------------

    UNSTEADY ALGORITHM

 --- Time step parameters

       IDTVAR =              0 (0 cst; 1,2 var (t, t-space  )
       IPTLRO =              0 (1: rho-related DT clipping  )
       COUMAX =    0.10000E+01 (Maximum target CFL          )
       FOUMAX =    0.10000E+02 (Maximum target Fourier      )
       VARRDT =    0.10000E+00 (For var. DT, max. increase  )
       DTMIN  =    0.10000E-01 (Minimum time step           )
       DTMAX  =    0.10000E+03 (Maximum time step           )
       DTREF  =    0.10000E+00 (Reference time step         )

       With a non-constant time step (IDTVAR = 1 or 2),
         when the value of COUMAX or FOUMAX is negative
         or zero, the associated time step limitation (for
         CFL and Fourier respectively) is ignored.

 --- Frozen velocity field

       ICCVFG =              0 (1: frozen velocity field    )

 --- Per-variable properties

----------------------------
 Variable  ISTAT      CDTVAR
----------------------------
 Pressure      0  0.1000E+01
 Velocity      1  0.1000E+01
 Velocity      1  0.1000E+01
 Velocity      1  0.1000E+01
 TempC         1  0.1000E+01
----------------------------

       ISTAT  =  0 ou  1       (1 for unsteady              )
       CDTVAR >  0             (time step multiplier        )

 --- Order of base time stepping scheme
       ISCHTP =              1 (1: order 1; 2: order 2      )
                                                             

 -----------------------------------------------------------


 ** CONVECTION - DIFFUSION
    ----------------------

-------------------------------------------------------------
 Variable  ICONV  IDIFF IDIFFT ISCHCV ISSTPC   BLENCV  THETAV
-------------------------------------------------------------
 Pressure      0      1      1      1      0 0.00E+00 0.10E+01
 Velocity      1      1      1      1      0 0.10E+01 0.10E+01
 Velocity      1      1      1      1      0 0.10E+01 0.10E+01
 Velocity      1      1      1      1      0 0.10E+01 0.10E+01
 TempC         1      1      1      1      0 0.10E+01 0.10E+01
-------------------------------------------------------------

       ICONV  =  0 ou  1       (1 for convection active     )
       IDIFF  =  0 ou  1       (1 for total diffusion active)
       IDIFFT =  0 ou  1       (1 for turbulent diff. active)
       ISCHCV =  0 ou  1       (SOLU or CD                  )
       ISSTPC =  0 ou  1       (1: no slope test            )
       BLENCV =  [0.;1.]       (1-upwind proportion         )
       THETAV =  [0.;1.]       (0.5 Crank-Nicolson/AB       )
                               (theta for convection-       )
                               (diffusion terms uses        )
                               ((1-theta).old+theta.new     )


 -----------------------------------------------------------


 ** STOKES
    ------
       IPHYDR =              0 (1: account for explicit
                                   balance between pressure
                                   gradient, gravity source
                                   terms, and head losses     )
       ICALHY =              0 (1: compute hydrastatic
                                   pressure for Dirichlet
                                   conditions for pressure
                                   on outlet                  )
       IPRCO  =              1 (1: pressure-continuity        )
       IPUCOU =              0 (1: reinforced U-P coupling    )
       NTERUP =              1 (n: n sweeps on navsto for
                                   velocity/pressure coupling )

  -- Continuous phase: 

       IREVMC =              0 (Velocity reconstruction mode)

       RELAXV =    0.10000E+01 for pressure (relaxation)
       ARAK   =    0.10000E+01 (Arakawa factor              )

       ISTMPF =              1 (time scheme for flow
                               (0: explicit (THETFL = 0     )
                               (1: std scheme (Saturne 1.0  )
                               (2: 2nd-order (THETFL = 0.5  )
       THETFL =   -0.99900E+03 (theta for mass flow         )
       IROEXT =              0 (density extrapolation
                               (0: explicit
                               (1: n+thetro with thetro=1/2
                               (2: n+thetro with thetro=1
       THETRO =    0.00000E+00 (theta for density
                               ((1+theta).new-theta.old
       IVIEXT =              0 (total viscosity extrapolation
                               (0: explicit
                               (1: n+thetvi with thetro=1/2
                               (2: n+thetvi with thetro=1
       THETVI =    0.00000E+00 (theta for total viscosity
                               ((1+theta).new-theta.old
       ICPEXT =              0 (specific heat extrapolation
                               (0: explicit
                               (1: n+thetcp with thetro=1/2
                               (2: n+thetcp with thetro=1
       THETCP =    0.00000E+00 (specific heat theta-scheme
                               ((1+theta).new-theta.old
       THETSN =    0.00000E+00 (Nav-Stokes S.T. theta scheme)
                               ((1+theta).new-theta.old
       THETST =    0.00000E+00 (Turbulence S.T. theta-scheme)
                               ((1+theta).new-theta.old
       EPSUP  =    0.10000E-04 (Velocity/pressure coupling
                                stop test                   )


 -----------------------------------------------------------


 ** GRADIENTS CALCULATION
    ---------------------

       IMRGRA =              0 (Reconstruction mode         )
       ANOMAX =    0.78540E+00 (Non-ortho angle: limit for  )
                               (least squares ext. neighbors)

-----------------------------------------------------------
 Variable NSWRGR NSWRSM      EPSRGR      EPSRSM      EXTRAG
-----------------------------------------------------------
 Pressure    100      2  0.1000E-04  0.1000E-07  0.0000E+00
 Velocity    100      1  0.1000E-04  0.1000E-07  0.0000E+00
 Velocity    100      1  0.1000E-04  0.1000E-07  0.0000E+00
 Velocity    100      1  0.1000E-04  0.1000E-07  0.0000E+00
 TempC       100      1  0.1000E-04  0.1000E-07  0.0000E+00
-----------------------------------------------------------  

-----------------------------------
 Variable IRCFLU IMLIGR      CLIMGR
-----------------------------------
 Pressure      1     -1  0.1500E+01
 Velocity      1     -1  0.1500E+01
 Velocity      1     -1  0.1500E+01
 Velocity      1     -1  0.1500E+01
 TempC         1     -1  0.1500E+01
-----------------------------------

       NSWRGR =                (nb sweep gradient reconstr. )
       NSWRSM =                (nb sweep rhs reconstrcution )
       EPSRGR =                (grad. reconstruction prec.  )
       EPSRSM =                (rhs   reconstruction prec.  )
       EXTRAG =  [0.;1.]       (gradients extrapolation     )
       IRCFLU =  0 ou  1       (flow reconstruction         )
       IMLIGR =  < 0, 0 ou 1   (gradient limitation method  )
       CLIMGR =  > 1 ou 1      (gradient limitation coeff.  )


 -----------------------------------------------------------


 ** FACE INTERPOLATION
    ------------------
       IMVISF =              0 (0 arithmetic                )


 -----------------------------------------------------------


 ** CALCULATION OF TEMPORAL MEANS (MOMENTS)
    ---------------------------------------

       NBMOMT =              0 (Number of moments           )

 -----------------------------------------------------------


 ** BASE ITERATIVE SOLVERS
    ----------------------

------------------------------------------
 Variable IRESOL NITMAX      EPSILO IDIRCL
------------------------------------------
 Pressure     -1  10000  0.1000E-07      1
 Velocity     -1  10000  0.1000E-07      1
 Velocity     -1  10000  0.1000E-07      1
 Velocity     -1  10000  0.1000E-07      1
 TempC        -1  10000  0.1000E-07      1
-----------------------------------

       IRESOL =            -1  (automatic solver choice     )
                IPOL*1000 + 0  (p conjuguate gradient       )
                            1  (Jacobi                      )
                IPOL*1000 + 2  (bicgstab                    )
                  avec IPOL    (preconditioning degree      )
       NITMAX =                (max number of iterations    )
       EPSILO =                (resolution precision        )
       IDIRCL = 0 ou 1         (shift diagonal if          
                                ISTAT=0 and no Dirichlet    )


 -----------------------------------------------------------


 ** MULTIGRID
    ---------

       NCEGRM =             30 (Max nb cells coarsest grid  )
       NGRMAX =             25 (Max number of levels        )
------------------------------                               
 Variable   IMGR NCYMAX NITMGF                               
------------------------------                               
 Pressure      1    100     10
 Velocity      0    100     10
 Velocity      0    100     10
 Velocity      0    100     10
 TempC         0    100     10
------------------------------

       IMGR   =  0 ou 1        (1: multigrid activated      )
       NCYMAX =                (Max number  of cycles       )
       NITMGF =                (Max nb iter on coarsest grid)


  Multigrid rank merge parameters:
    mean  coarse cells merge threshold: 300
    total coarse cells merge threshold: 500
    minimum ranks merge threshold:      1
    merge stride:                       1

 -----------------------------------------------------------


 ** SCALARS
    -------

       ITBRRB =              0 (T or H reconstruction at bdy)

------------------------------------------------------
 Variable Number ISCSTH IVISLS      VISLS0      SIGMAS
------------------------------------------------------
 TempC         1     -1      0  0.6311E-04  0.1000E+01
------------------------------------------------------

-----------------------------------
 Variable Number ISCAVR      RVARFL
-----------------------------------
 TempC         1      0  0.8000E+00
-----------------------------------

-----------------------------------------------
 Variable Number ICLVFL      SCAMIN      SCAMAX
-----------------------------------------------
 TempC         1     -1  0.5000E+02  0.2000E+03
-----------------------------------------------

-------------------------------------------------------------

       For each scalar, the number indicates it's rank
         in the list of all scalars. User scalars are placed
         first, from 1 to NSCAUS. Specific physics scalars
         are placed at the end, from
         NSCAUS+1 to NSCAPP+NSCAUS=NSCAL.

       ISCSTH = -1,0, 1 ou 2   (T (C), Passive, T (K) or H  )
       IVISLS = 0 ou >0        (Viscosity: constant or not  )
       VISLS0 = >0             (Reference viscosity         )
       SIGMAS = >0             (Schmidt                     )
       ISCAVR = 0 ou >0        (Associat. scalar if variance)
       RVARFL = >0             (Rf, cf variance dissipation )
       ICLVFL = 0, 1 ou 2      (Variance clipping mode      )
       SCAMIN =                (Min authorized value        )
       SCAMAX =                (Max authorized value        )
        For variances, SCAMIN is ignored and SCAMAX is used
          only if ICLVFL = 2

------------------------------------------------------
   Scalar        THETSS    IVSEXT      THETVS
------------------------------------------------------
          1  0.0000E+00         0  0.0000E+00
------------------------------------------------------

       THETSS =                (theta for source terms      )
                               ((1+theta).new-theta.old     )
       IVSEXT =                (extrap. total viscosity     )
                               (0: explicit                 )
                               (1: n+thetvs with thetvs=1/2 )
                               (2: n+thetvs with thetvs=1   )
       THETVS =                (theta for scalar diffusivity
                               ((1+theta).new-theta.old     )


 -----------------------------------------------------------


 ** CALCULATION MANAGEMENT
    ----------------------

 --- Restarted calculation
       ISUITE =              0 (1: restarted calculuation   )
       ILEAUX =              1 (1: also read  suiamx        )
       IECAUX =              1 (1: also write suiavx        )

       suiamx and suiavx are the auxiliary restart files.

 --- Calculation time
     The numbering of time steps and the measure of simulated
       physical time are absolute values, and not values
       relative to the current calculation.

       INPDT0 =              0 (1: 0 time step calcuation   )
       NTMABS =             10 (Final time step required    )

 --- CPU time margin
       TMARUS =   -0.10000E+01 (CPU time margin before stop )


 -----------------------------------------------------------


 ** INPUT-OUTPUT
    ------------

 --- Restart file
       NTSUIT =              0 (Checkpoint frequency )

 --- Post-processed variables

       Number Name
            2 Pressure        
            3 VelocityX       
            4 VelocityY       
            5 VelocityZ       
            6 TempC           
            7 Density         
            8 LamVisc         
            9 CourantNb       
           10 FourierNb       
           11 total_pressure  
         --           --

 --- Probe history files
       NTHIST =              1 (Output frequency     )
       FRHIST =     -.10000E+01 (Output frequency (s) )
       NCAPT  =              9 (Number of probes     )
       NTHSAV =             -1 (Checkpoint frequency )

       Number Name                  Nb. probes (-1: all)
            2 Pressure                      -1
            3 VelocityX                     -1
            4 VelocityY                     -1
            5 VelocityZ                     -1
            6 TempC                         -1
            7 Density                       -1
            8 LamVisc                       -1
            9 CourantNb                     -1
           10 FourierNb                     -1
           11 total_pressure                -1
         --           --                --

 --- Log files
       NTLIST =              1 (Output frequency     )

       Number Name                IWARNI verbosity level
                                      (-999: not applicable)

            2 Pressure                       0
            3 VelocityX                      0
            4 VelocityY                      0
            5 VelocityZ                      0
            6 TempC                          0
            7 Density                     -999
            8 LamVisc                     -999
            9 CourantNb                   -999
           10 FourierNb                   -999
           11 total_pressure              -999
         --           --                --

 --- Additional post-processing variables
       IPSTDV =            210 (Product of the following     
                                values based on activation  )
       IPSTYP =              2 (Yplus          on boundary  )
       IPSTCL =              3 (Variables      on boundary  )
       IPSTFT =              5 (Thermal flow   on boundary  )
       IPSTFO =              7 (Force exerted  on boundary  )
  and  IPSTDV =              1 (No additional output        )


 -----------------------------------------------------------


 ** ALE METHOD (MOVING MESH)
    -----------                                              

       IALE   =              0 (1: activated                )
       NALINF =           -999 (Fluid initialization
                                                  iterations)


 -----------------------------------------------------------


 Reading file:        mesh_input
 Finished reading:    mesh_input
 No "partition/domain_number_2" file available;
   domain partitioning will use a space-filling curve.

 Partitioning by space-filling curve: Morton (in bounding box).

Postprocessing output writers:
------------------------------

  -1: name: results
      directory: postprocessing
      format: EnSight Gold
      options: binary
      time dependency: fixed mesh
      output: at calculation end


 ----------------------------------------------------------

 Halo construction with standard neighborhood
 ============================================

 Face interfaces creation
 Vertex interfaces creation
 Halo creation
 Halo definition
    Local halo definition
    Distant halo creation
    Updating the faces -> cells connectivity

 Halo creation times summary

     Interface creation:                       0.00768 s
     Halo creation:                             0.00236 s

     Total time for halo creation:              0.01 s

 ----------------------------------------------------------


 Histogram of the number of cells per rank:

    minimum value =              25379
    maximum value =              25380

      1 : [      25379 ;      25380 ] =          2

 ----------------------------------------------------------

 Histogram of the number of standard + halo cells per rank:

    minimum value =              25904
    maximum value =              25916

      1 : [      25904 ;      25906 [ =          1
      2 : [      25906 ;      25908 [ =          0
      3 : [      25908 ;      25911 [ =          0
      4 : [      25911 ;      25913 [ =          0
      5 : [      25913 ;      25916 ] =          1

 ----------------------------------------------------------

 Histogram of the number of ghost cells per rank:

    minimum value =                525
    maximum value =                536

      1 : [        525 ;        527 [ =          1
      2 : [        527 ;        529 [ =          0
      3 : [        529 ;        531 [ =          0
      4 : [        531 ;        533 [ =          0
      5 : [        533 ;        536 ] =          1

 ----------------------------------------------------------

 Histogram of the number of interior faces per rank:

    minimum value =              48279
    maximum value =              48457

      1 : [      48279 ;      48314 [ =          1
      2 : [      48314 ;      48350 [ =          0
      3 : [      48350 ;      48385 [ =          0
      4 : [      48385 ;      48421 [ =          0
      5 : [      48421 ;      48457 ] =          1

 ----------------------------------------------------------

 Histogram of the number of boundary faces per rank:

    minimum value =               5325
    maximum value =               5677

      1 : [       5325 ;       5395 [ =          1
      2 : [       5395 ;       5465 [ =          0
      3 : [       5465 ;       5536 [ =          0
      4 : [       5536 ;       5606 [ =          0
      5 : [       5606 ;       5677 ] =          1

 ----------------------------------------------------------

 Histogram of the number of interior faces per cell:

    minimum value =                  3
    maximum value =                  4

      1 : [          3 ;          4 ] =      50759

 ----------------------------------------------------------

 Histogram of the number of neighboring domains per rank:

    minimum value =                  1
    maximum value =                  1

      1 : [          1 ;          1 ] =          2

 ----------------------------------------------------------

 Global definition of the number of elements (cells, vertices, faces...)
Synchronizing cell families

 Renumbering mesh:

 Mesh coordinates:               minimum    and maximum
                       X : -1.1093453e-14  3.0000000e+02
                       Y : -9.9998765e+01  9.9998765e+01
                       Z : -1.0000000e+02  1.0000000e+02
 Mesh
     Number of cells:          50759
     Number of interior faces: 96017
     Number of boundary faces: 11002
     Number of vertices:       11471

 Groups:
    "disk_inlet"
       boundary faces:          322
    "disk_outlet"
       boundary faces:          322
    "disk_walls"
       boundary faces:           64
    "tunnel_inlet"
       boundary faces:         1489
    "tunnel_outlet"
       boundary faces:         1489
    "tunnel_walls"
       boundary faces:         7316

 --- Information on the volumes
       Minimum control volume      =  4.0856777e+00
       Maximum control volume      =  1.4259805e+03
       Total volume for the domain =  9.4126617e+06

 Computing geometric quantities (0.025 s)
                                                             
       ALMAX  =    0.21001E+03 (Characteristic length       )
       ALMAX is the cubic root of the domain volume.

                                                             
 ----------------------------------------------------------- 
                                                             
                                                             
 ** VARIABLES INITIALIZATION                                 
    ------------------------                                 
                                                             
 ---------------------------------                           
  Variable  Min. value  Max. value                           
 ---------------------------------                           
  Pressure  0.0000E+00  0.0000E+00
  Velocity  0.5000E-01  0.5000E-01
  Velocity  0.0000E+00  0.0000E+00
  Velocity  0.0000E+00  0.0000E+00
  TempC     0.5000E+02  0.5000E+02
 ---------------------------------                           

  VisTur    0.1000E+00  0.1000E+00
 ---------------------------------                           



-------------------------------------------------------------



===============================================================



                       MAIN CALCULATION                      
                       ================                      


===============================================================




===============================================================


 INSTANT    0.100000000E+00   TIME STEP NUMBER               1
 ============================================================= 


 ---------------------------------                           
 Property   Min. value  Max. value                           
 ---------------------------------                           
  Density   0.1179E+01  0.1179E+01
  LamVisc   0.1830E-04  0.1830E-04
 ---------------------------------                           

 --- Diffusivity:                                            
 ---------------------------------------                     
 Scalar   Number  Min. value  Max. value                     
 ---------------------------------------                     
 TempC         1  0.6311E-04  0.6311E-04
 ---------------------------------------                     



Code_Saturne: cs_gui_boundary_conditions.c:1074: Warning
The group or attribute "inlet" in the selection
criteria:
"inlet"
 does not correspond to any boundary face.


Code_Saturne: cs_gui_boundary_conditions.c:1074: Warning
The group or attribute "outlet" in the selection
criteria:
"outlet"
 does not correspond to any boundary face.


Code_Saturne: cs_gui_boundary_conditions.c:1074: Warning
The group or attribute "wall" in the selection
criteria:
"wall"
 does not correspond to any boundary face.


Code_Saturne: cs_gui_boundary_conditions.c:1074: Warning
The group or attribute "sym" in the selection
criteria:
"sym"
 does not correspond to any boundary face.


Code_Saturne: cs_gui_boundary_conditions.c:1074: Warning
The group or attribute "inlet" in the selection
criteria:
"not (inlet or outlet or wall or sym)"
 does not correspond to any boundary face.


Code_Saturne: cs_gui_boundary_conditions.c:1074: Warning
The group or attribute "inlet" in the selection
criteria:
"not (inlet or outlet or wall or sym or not (inlet or outlet or wall or sym))"
 does not correspond to any boundary face.


Code_Saturne: cs_gui_boundary_conditions.c:1074: Warning
The group or attribute "inlet" in the selection
criteria:
"inlet"
 does not correspond to any boundary face.


Code_Saturne: cs_gui_boundary_conditions.c:1074: Warning
The group or attribute "outlet" in the selection
criteria:
"outlet"
 does not correspond to any boundary face.


Code_Saturne: cs_gui_boundary_conditions.c:1074: Warning
The group or attribute "wall" in the selection
criteria:
"wall"
 does not correspond to any boundary face.


Code_Saturne: cs_gui_boundary_conditions.c:1074: Warning
The group or attribute "sym" in the selection
criteria:
"sym"
 does not correspond to any boundary face.


Code_Saturne: cs_gui_boundary_conditions.c:1074: Warning
The group or attribute "inlet" in the selection
criteria:
"not (inlet or outlet or wall or sym)"
 does not correspond to any boundary face.


Code_Saturne: cs_gui_boundary_conditions.c:1074: Warning
The group or attribute "inlet" in the selection
criteria:
"not (inlet or outlet or wall or sym or not (inlet or outlet or wall or sym))"
 does not correspond to any boundary face.


Code_Saturne: cs_gui_boundary_conditions.c:1074: Warning
The group or attribute "inlet" in the selection
criteria:
"inlet"
 does not correspond to any boundary face.


Code_Saturne: cs_gui_boundary_conditions.c:1074: Warning
The group or attribute "outlet" in the selection
criteria:
"outlet"
 does not correspond to any boundary face.


Code_Saturne: cs_gui_boundary_conditions.c:1074: Warning
The group or attribute "wall" in the selection
criteria:
"wall"
 does not correspond to any boundary face.


Code_Saturne: cs_gui_boundary_conditions.c:1074: Warning
The group or attribute "sym" in the selection
criteria:
"sym"
 does not correspond to any boundary face.


Code_Saturne: cs_gui_boundary_conditions.c:1074: Warning
The group or attribute "inlet" in the selection
criteria:
"not (inlet or outlet or wall or sym)"
 does not correspond to any boundary face.


Code_Saturne: cs_gui_boundary_conditions.c:1074: Warning
The group or attribute "inlet" in the selection
criteria:
"not (inlet or outlet or wall or sym or not (inlet or outlet or wall or sym))"
 does not correspond to any boundary face.


   ** INFORMATION ON BOUNDARY FACES TYPE
      ----------------------------------

-------------------------------------------------------------------------
Boundary type          Code    Nb faces
-------------------------------------------------------------------------
Inlet                     2           0
Smooth wall               5           0
Rough wall                6           0
Symmetry                  4           0
Free outlet               3       11002
Undefined                 1           0
-------------------------------------------------------------------------


Boundary faces with free inlet/outlet detected
Update of reference point for total pressure
 XYZP0 =    0.43887E-17  -0.10015E+01  -0.39530E-01



   ** BOUNDARY MASS FLOW INFORMATION
      ------------------------------

---------------------------------------------------------------
Boundary type          Code    Nb faces           Mass flow
---------------------------------------------------------------
Inlet                     2           0         0.000000000E+00
Smooth wall               5           0         0.000000000E+00
Rough wall                6           0         0.000000000E+00
Symmetry                  4           0         0.000000000E+00
Free outlet               3       11002         0.000000000E+00
Undefined                 1           0         0.000000000E+00
---------------------------------------------------------------


   ** INFORMATION ON CONVERGENCE
      --------------------------
---------------------------------------------------------------
   Variable    Rhs norm      N_iter  Norm. residual      derive
---------------------------------------------------------------
c  Pressure     0.13108E-12       0   0.99893E+00  -0.13108E-12 
c  VelocityX    0.30775E+05       0   0.11645E-22   0.00000E+00 
c  VelocityY    0.26448E-18       0   0.00000E+00   0.00000E+00 
c  VelocityZ    0.26172E-18       0   0.00000E+00   0.00000E+00 
c  TempC        0.30775E+08       1   0.12615E-18   0.00000E+00 
---------------------------------------------------------------
  
  

   ** INFORMATION ON VARIABLES
      ------------------------
---------------------------------------------------------------
   Variable      Min. value    Max. value   Min clip   Max clip
---------------------------------------------------------------
v  Pressure     0.00000E+00   0.00000E+00         --         -- 
v  VelocityX    0.50000E-01   0.50000E-01         --         -- 
v  VelocityY    0.00000E+00   0.00000E+00         --         -- 
v  VelocityZ    0.00000E+00   0.00000E+00         --         -- 
v  TempC        0.50000E+02   0.50000E+02          0          0 
v  Density      0.11786E+01   0.11786E+01          0          0 
v  LamVisc      0.18300E-04   0.18300E-04          0          0 
v  CourantNb    0.00000E+00   0.00000E+00          0          0 
v  FourierNb    0.14422E-06   0.16545E-04          0          0 
v  total_pressu 0.10132E+06   0.10132E+06          0          0 
---------------------------------------------------------------
  
  

   ** INFORMATION ON CLIPPINGS
      ------------------------
---------------------------------------------------------------
   Variable    Min wo clips  Max wo clips   Min clip   Max clip
---------------------------------------------------------------
a  TempC        0.50000E+02   0.50000E+02          0          0 
---------------------------------------------------------------
  
  

   ** INFORMATION ON THE TIME STEP
      -----------------------------
---------------------------------------------------------------
Criterion    Value      at         xc           yc           zc
---------------------------------------------------------------
Courant min  0.00000E+00  0.17180E+01  0.57050E+02 -0.14494E+02  
Courant max  0.00000E+00  0.17180E+01  0.57050E+02 -0.14494E+02  
Fourier min  0.14422E-06  0.12654E+03  0.57031E+02  0.62507E+02  
Fourier max  0.16545E-04  0.15056E+03 -0.39574E+02  0.12175E+02  
Cou_Fou min  0.14422E-06  0.12654E+03  0.57031E+02  0.62507E+02  
Cou_Fou max  0.16545E-04  0.15056E+03 -0.39574E+02  0.12175E+02  
---------------------------------------------------------------
  
  

 CPU TIME FOR THE TIME STEP                1:        0.32802E+00

===============================================================


 INSTANT    0.200000000E+00   TIME STEP NUMBER               2
 ============================================================= 




Code_Saturne: cs_gui_boundary_conditions.c:1074: Warning
The group or attribute "inlet" in the selection
criteria:
"inlet"
 does not correspond to any boundary face.


Code_Saturne: cs_gui_boundary_conditions.c:1074: Warning
The group or attribute "outlet" in the selection
criteria:
"outlet"
 does not correspond to any boundary face.


Code_Saturne: cs_gui_boundary_conditions.c:1074: Warning
The group or attribute "wall" in the selection
criteria:
"wall"
 does not correspond to any boundary face.


Code_Saturne: cs_gui_boundary_conditions.c:1074: Warning
The group or attribute "sym" in the selection
criteria:
"sym"
 does not correspond to any boundary face.


Code_Saturne: cs_gui_boundary_conditions.c:1074: Warning
The group or attribute "inlet" in the selection
criteria:
"not (inlet or outlet or wall or sym)"
 does not correspond to any boundary face.


Code_Saturne: cs_gui_boundary_conditions.c:1074: Warning
The group or attribute "inlet" in the selection
criteria:
"not (inlet or outlet or wall or sym or not (inlet or outlet or wall or sym))"
 does not correspond to any boundary face.


Code_Saturne: cs_gui_boundary_conditions.c:1074: Warning
The group or attribute "inlet" in the selection
criteria:
"inlet"
 does not correspond to any boundary face.


Code_Saturne: cs_gui_boundary_conditions.c:1074: Warning
The group or attribute "outlet" in the selection
criteria:
"outlet"
 does not correspond to any boundary face.


Code_Saturne: cs_gui_boundary_conditions.c:1074: Warning
The group or attribute "wall" in the selection
criteria:
"wall"
 does not correspond to any boundary face.


Code_Saturne: cs_gui_boundary_conditions.c:1074: Warning
The group or attribute "sym" in the selection
criteria:
"sym"
 does not correspond to any boundary face.


Code_Saturne: cs_gui_boundary_conditions.c:1074: Warning
The group or attribute "inlet" in the selection
criteria:
"not (inlet or outlet or wall or sym)"
 does not correspond to any boundary face.


Code_Saturne: cs_gui_boundary_conditions.c:1074: Warning
The group or attribute "inlet" in the selection
criteria:
"not (inlet or outlet or wall or sym or not (inlet or outlet or wall or sym))"
 does not correspond to any boundary face.


   ** BOUNDARY MASS FLOW INFORMATION
      ------------------------------

---------------------------------------------------------------
Boundary type          Code    Nb faces           Mass flow
---------------------------------------------------------------
Inlet                     2           0         0.000000000E+00
Smooth wall               5           0         0.000000000E+00
Rough wall                6           0         0.000000000E+00
Symmetry                  4           0         0.000000000E+00
Free outlet               3       11002         0.000000000E+00
Undefined                 1           0         0.000000000E+00
---------------------------------------------------------------

Incoming flow detained for       5431 outlet faces on      11002

   ** INFORMATION ON CONVERGENCE
      --------------------------
---------------------------------------------------------------
   Variable    Rhs norm      N_iter  Norm. residual      derive
---------------------------------------------------------------
c  Pressure     0.50581E+02     299   0.73222E-08   0.99436E+00 
c  VelocityX    0.30775E+05       3   0.69673E-09   0.11364E-03 
c  VelocityY    0.17298E-03       5   0.30111E-10   0.10683E-04 
c  VelocityZ    0.17299E-03       5   0.34938E-10   0.11185E-04 
c  TempC        0.30775E+08       1   0.12557E-18   0.00000E+00 
---------------------------------------------------------------
  
  

   ** INFORMATION ON VARIABLES
      ------------------------
---------------------------------------------------------------
   Variable      Min. value    Max. value   Min clip   Max clip
---------------------------------------------------------------
v  Pressure    -0.15669E+01   0.96984E-01         --         -- 
v  VelocityX    0.40327E-01   0.11430E+00         --         -- 
v  VelocityY   -0.24845E-01   0.22620E-01         --         -- 
v  VelocityZ   -0.19100E-01   0.23225E-01         --         -- 
v  TempC        0.50000E+02   0.50000E+02          0          0 
v  Density      0.11786E+01   0.11786E+01          0          0 
v  LamVisc      0.18300E-04   0.18300E-04          0          0 
v  CourantNb    0.66653E-03   0.15000E-01          0          0 
v  FourierNb    0.14422E-06   0.16545E-04          0          0 
v  total_pressu 0.10132E+06   0.10133E+06          0          0 
---------------------------------------------------------------
  
  

   ** INFORMATION ON CLIPPINGS
      ------------------------
---------------------------------------------------------------
   Variable    Min wo clips  Max wo clips   Min clip   Max clip
---------------------------------------------------------------
a  TempC        0.50000E+02   0.50000E+02          0          0 
---------------------------------------------------------------
  
  

   ** INFORMATION ON THE TIME STEP
      -----------------------------
---------------------------------------------------------------
Criterion    Value      at         xc           yc           zc
---------------------------------------------------------------
Courant min  0.66653E-03  0.12654E+03  0.57031E+02  0.62507E+02  
Courant max  0.15000E-01  0.15054E+03 -0.37280E+01 -0.41239E+02  
Fourier min  0.14422E-06  0.12654E+03  0.57031E+02  0.62507E+02  
Fourier max  0.16545E-04  0.15056E+03 -0.39574E+02  0.12175E+02  
Cou_Fou min  0.66667E-03  0.12654E+03  0.57031E+02  0.62507E+02  
Cou_Fou max  0.15017E-01  0.15056E+03 -0.39574E+02  0.12175E+02  
---------------------------------------------------------------
  
  

 CPU TIME FOR THE TIME STEP                2:        0.10601E+01

===============================================================


 INSTANT    0.300000000E+00   TIME STEP NUMBER               3
 ============================================================= 




Code_Saturne: cs_gui_boundary_conditions.c:1074: Warning
The group or attribute "inlet" in the selection
criteria:
"inlet"
 does not correspond to any boundary face.


Code_Saturne: cs_gui_boundary_conditions.c:1074: Warning
The group or attribute "outlet" in the selection
criteria:
"outlet"
 does not correspond to any boundary face.


Code_Saturne: cs_gui_boundary_conditions.c:1074: Warning
The group or attribute "wall" in the selection
criteria:
"wall"
 does not correspond to any boundary face.


Code_Saturne: cs_gui_boundary_conditions.c:1074: Warning
The group or attribute "sym" in the selection
criteria:
"sym"
 does not correspond to any boundary face.


Code_Saturne: cs_gui_boundary_conditions.c:1074: Warning
The group or attribute "inlet" in the selection
criteria:
"not (inlet or outlet or wall or sym)"
 does not correspond to any boundary face.


Code_Saturne: cs_gui_boundary_conditions.c:1074: Warning
The group or attribute "inlet" in the selection
criteria:
"not (inlet or outlet or wall or sym or not (inlet or outlet or wall or sym))"
 does not correspond to any boundary face.


Code_Saturne: cs_gui_boundary_conditions.c:1074: Warning
The group or attribute "inlet" in the selection
criteria:
"inlet"
 does not correspond to any boundary face.


Code_Saturne: cs_gui_boundary_conditions.c:1074: Warning
The group or attribute "outlet" in the selection
criteria:
"outlet"
 does not correspond to any boundary face.


Code_Saturne: cs_gui_boundary_conditions.c:1074: Warning
The group or attribute "wall" in the selection
criteria:
"wall"
 does not correspond to any boundary face.


Code_Saturne: cs_gui_boundary_conditions.c:1074: Warning
The group or attribute "sym" in the selection
criteria:
"sym"
 does not correspond to any boundary face.


Code_Saturne: cs_gui_boundary_conditions.c:1074: Warning
The group or attribute "inlet" in the selection
criteria:
"not (inlet or outlet or wall or sym)"
 does not correspond to any boundary face.


Code_Saturne: cs_gui_boundary_conditions.c:1074: Warning
The group or attribute "inlet" in the selection
criteria:
"not (inlet or outlet or wall or sym or not (inlet or outlet or wall or sym))"
 does not correspond to any boundary face.


   ** BOUNDARY MASS FLOW INFORMATION
      ------------------------------

---------------------------------------------------------------
Boundary type          Code    Nb faces           Mass flow
---------------------------------------------------------------
Inlet                     2           0         0.000000000E+00
Smooth wall               5           0         0.000000000E+00
Rough wall                6           0         0.000000000E+00
Symmetry                  4           0         0.000000000E+00
Free outlet               3       11002         0.118767964E-04
Undefined                 1           0         0.000000000E+00
---------------------------------------------------------------

Incoming flow detained for       5939 outlet faces on      11002

   ** INFORMATION ON CONVERGENCE
      --------------------------
---------------------------------------------------------------
   Variable    Rhs norm      N_iter  Norm. residual      derive
---------------------------------------------------------------
c  Pressure     0.12118E+03     305   0.73705E-08   0.18011E+01 
c  VelocityX    0.30536E+05       4   0.87576E-09   0.85962E-04 
c  VelocityY    0.16524E+04       5   0.33330E-10   0.20533E-04 
c  VelocityZ    0.16445E+04       5   0.33092E-10   0.21408E-04 
c  TempC        0.30775E+08       1   0.12471E-18   0.00000E+00 
---------------------------------------------------------------
  
  

   ** INFORMATION ON VARIABLES
      ------------------------
---------------------------------------------------------------
   Variable      Min. value    Max. value   Min clip   Max clip
---------------------------------------------------------------
v  Pressure    -0.19273E+01   0.10179E+01         --         -- 
v  VelocityX    0.23674E-01   0.17600E+00         --         -- 
v  VelocityY   -0.59102E-01   0.53531E-01         --         -- 
v  VelocityZ   -0.49453E-01   0.52433E-01         --         -- 
v  TempC        0.50000E+02   0.50000E+02          0          0 
v  Density      0.11786E+01   0.11786E+01          0          0 
v  LamVisc      0.18300E-04   0.18300E-04          0          0 
v  CourantNb    0.66605E-03   0.18127E-01          0          0 
v  FourierNb    0.14422E-06   0.17104E-04          0          0 
v  total_pressu 0.10132E+06   0.10133E+06          0          0 
---------------------------------------------------------------
  
  

   ** INFORMATION ON CLIPPINGS
      ------------------------
---------------------------------------------------------------
   Variable    Min wo clips  Max wo clips   Min clip   Max clip
---------------------------------------------------------------
a  TempC        0.50000E+02   0.50000E+02          0          0 
---------------------------------------------------------------
  
  

   ** INFORMATION ON THE TIME STEP
      -----------------------------
---------------------------------------------------------------
Criterion    Value      at         xc           yc           zc
---------------------------------------------------------------
Courant min  0.66605E-03  0.12654E+03  0.57031E+02  0.62507E+02  
Courant max  0.18127E-01  0.15139E+03 -0.32005E+02 -0.25548E+02  
Fourier min  0.14422E-06  0.12654E+03  0.57031E+02  0.62507E+02  
Fourier max  0.17104E-04  0.15056E+03 -0.39574E+02  0.12175E+02  
Cou_Fou min  0.66619E-03  0.12654E+03  0.57031E+02  0.62507E+02  
Cou_Fou max  0.18137E-01  0.15139E+03 -0.32005E+02 -0.25548E+02  
---------------------------------------------------------------
  
  

 CPU TIME FOR THE TIME STEP                3:        0.14281E+01

===============================================================


 INSTANT    0.400000000E+00   TIME STEP NUMBER               4
 ============================================================= 




Code_Saturne: cs_gui_boundary_conditions.c:1074: Warning
The group or attribute "inlet" in the selection
criteria:
"inlet"
 does not correspond to any boundary face.


Code_Saturne: cs_gui_boundary_conditions.c:1074: Warning
The group or attribute "outlet" in the selection
criteria:
"outlet"
 does not correspond to any boundary face.


Code_Saturne: cs_gui_boundary_conditions.c:1074: Warning
The group or attribute "wall" in the selection
criteria:
"wall"
 does not correspond to any boundary face.


Code_Saturne: cs_gui_boundary_conditions.c:1074: Warning
The group or attribute "sym" in the selection
criteria:
"sym"
 does not correspond to any boundary face.


Code_Saturne: cs_gui_boundary_conditions.c:1074: Warning
The group or attribute "inlet" in the selection
criteria:
"not (inlet or outlet or wall or sym)"
 does not correspond to any boundary face.


Code_Saturne: cs_gui_boundary_conditions.c:1074: Warning
The group or attribute "inlet" in the selection
criteria:
"not (inlet or outlet or wall or sym or not (inlet or outlet or wall or sym))"
 does not correspond to any boundary face.


Code_Saturne: cs_gui_boundary_conditions.c:1074: Warning
The group or attribute "inlet" in the selection
criteria:
"inlet"
 does not correspond to any boundary face.


Code_Saturne: cs_gui_boundary_conditions.c:1074: Warning
The group or attribute "outlet" in the selection
criteria:
"outlet"
 does not correspond to any boundary face.


Code_Saturne: cs_gui_boundary_conditions.c:1074: Warning
The group or attribute "wall" in the selection
criteria:
"wall"
 does not correspond to any boundary face.


Code_Saturne: cs_gui_boundary_conditions.c:1074: Warning
The group or attribute "sym" in the selection
criteria:
"sym"
 does not correspond to any boundary face.


Code_Saturne: cs_gui_boundary_conditions.c:1074: Warning
The group or attribute "inlet" in the selection
criteria:
"not (inlet or outlet or wall or sym)"
 does not correspond to any boundary face.


Code_Saturne: cs_gui_boundary_conditions.c:1074: Warning
The group or attribute "inlet" in the selection
criteria:
"not (inlet or outlet or wall or sym or not (inlet or outlet or wall or sym))"
 does not correspond to any boundary face.


   ** BOUNDARY MASS FLOW INFORMATION
      ------------------------------

---------------------------------------------------------------
Boundary type          Code    Nb faces           Mass flow
---------------------------------------------------------------
Inlet                     2           0         0.000000000E+00
Smooth wall               5           0         0.000000000E+00
Rough wall                6           0         0.000000000E+00
Symmetry                  4           0         0.000000000E+00
Free outlet               3       11002        -0.163252935E-04
Undefined                 1           0         0.000000000E+00
---------------------------------------------------------------

Incoming flow detained for       6838 outlet faces on      11002

   ** INFORMATION ON CONVERGENCE
      --------------------------
---------------------------------------------------------------
   Variable    Rhs norm      N_iter  Norm. residual      derive
---------------------------------------------------------------
c  Pressure     0.12412E+03     305   0.66879E-08   0.16220E+01 
c  VelocityX    0.30273E+05       4   0.12688E-08   0.72322E-04 
c  VelocityY    0.20537E+04       5   0.41032E-10   0.26282E-04 
c  VelocityZ    0.20526E+04       5   0.35929E-10   0.27225E-04 
c  TempC        0.30775E+08       1   0.12415E-18   0.00000E+00 
---------------------------------------------------------------
  
  

   ** INFORMATION ON VARIABLES
      ------------------------
---------------------------------------------------------------
   Variable      Min. value    Max. value   Min clip   Max clip
---------------------------------------------------------------
v  Pressure    -0.19663E+01   0.20002E+01         --         -- 
v  VelocityX   -0.15309E-02   0.22162E+00         --         -- 
v  VelocityY   -0.99348E-01   0.92468E-01         --         -- 
v  VelocityZ   -0.86558E-01   0.87900E-01         --         -- 
v  TempC        0.50000E+02   0.50000E+02          0          0 
v  Density      0.11786E+01   0.11786E+01          0          0 
v  LamVisc      0.18300E-04   0.18300E-04          0          0 
v  CourantNb    0.46971E-03   0.21000E-01          0          0 
v  FourierNb    0.14422E-06   0.17104E-04          0          0 
v  total_pressu 0.10132E+06   0.10133E+06          0          0 
---------------------------------------------------------------
  
  

   ** INFORMATION ON CLIPPINGS
      ------------------------
---------------------------------------------------------------
   Variable    Min wo clips  Max wo clips   Min clip   Max clip
---------------------------------------------------------------
a  TempC        0.50000E+02   0.50000E+02          0          0 
---------------------------------------------------------------
  
  

   ** INFORMATION ON THE TIME STEP
      -----------------------------
---------------------------------------------------------------
Criterion    Value      at         xc           yc           zc
---------------------------------------------------------------
Courant min  0.46971E-03  0.15321E+03  0.44718E+01  0.37835E+02  
Courant max  0.21000E-01  0.15058E+03 -0.41044E+02 -0.34749E+01  
Fourier min  0.14422E-06  0.12654E+03  0.57031E+02  0.62507E+02  
Fourier max  0.17104E-04  0.15056E+03 -0.39574E+02  0.12175E+02  
Cou_Fou min  0.47117E-03  0.15321E+03  0.44718E+01  0.37835E+02  
Cou_Fou max  0.21016E-01  0.15058E+03 -0.41044E+02 -0.34749E+01  
---------------------------------------------------------------
  
  

 CPU TIME FOR THE TIME STEP                4:        0.14481E+01

===============================================================


 INSTANT    0.500000000E+00   TIME STEP NUMBER               5
 ============================================================= 




Code_Saturne: cs_gui_boundary_conditions.c:1074: Warning
The group or attribute "inlet" in the selection
criteria:
"inlet"
 does not correspond to any boundary face.


Code_Saturne: cs_gui_boundary_conditions.c:1074: Warning
The group or attribute "outlet" in the selection
criteria:
"outlet"
 does not correspond to any boundary face.


Code_Saturne: cs_gui_boundary_conditions.c:1074: Warning
The group or attribute "wall" in the selection
criteria:
"wall"
 does not correspond to any boundary face.


Code_Saturne: cs_gui_boundary_conditions.c:1074: Warning
The group or attribute "sym" in the selection
criteria:
"sym"
 does not correspond to any boundary face.


Code_Saturne: cs_gui_boundary_conditions.c:1074: Warning
The group or attribute "inlet" in the selection
criteria:
"not (inlet or outlet or wall or sym)"
 does not correspond to any boundary face.


Code_Saturne: cs_gui_boundary_conditions.c:1074: Warning
The group or attribute "inlet" in the selection
criteria:
"not (inlet or outlet or wall or sym or not (inlet or outlet or wall or sym))"
 does not correspond to any boundary face.


Code_Saturne: cs_gui_boundary_conditions.c:1074: Warning
The group or attribute "inlet" in the selection
criteria:
"inlet"
 does not correspond to any boundary face.


Code_Saturne: cs_gui_boundary_conditions.c:1074: Warning
The group or attribute "outlet" in the selection
criteria:
"outlet"
 does not correspond to any boundary face.


Code_Saturne: cs_gui_boundary_conditions.c:1074: Warning
The group or attribute "wall" in the selection
criteria:
"wall"
 does not correspond to any boundary face.


Code_Saturne: cs_gui_boundary_conditions.c:1074: Warning
The group or attribute "sym" in the selection
criteria:
"sym"
 does not correspond to any boundary face.


Code_Saturne: cs_gui_boundary_conditions.c:1074: Warning
The group or attribute "inlet" in the selection
criteria:
"not (inlet or outlet or wall or sym)"
 does not correspond to any boundary face.


Code_Saturne: cs_gui_boundary_conditions.c:1074: Warning
The group or attribute "inlet" in the selection
criteria:
"not (inlet or outlet or wall or sym or not (inlet or outlet or wall or sym))"
 does not correspond to any boundary face.


   ** BOUNDARY MASS FLOW INFORMATION
      ------------------------------

---------------------------------------------------------------
Boundary type          Code    Nb faces           Mass flow
---------------------------------------------------------------
Inlet                     2           0         0.000000000E+00
Smooth wall               5           0         0.000000000E+00
Rough wall                6           0         0.000000000E+00
Symmetry                  4           0         0.000000000E+00
Free outlet               3       11002        -0.166155896E-04
Undefined                 1           0         0.000000000E+00
---------------------------------------------------------------

Incoming flow detained for       7096 outlet faces on      11002

   ** INFORMATION ON CONVERGENCE
      --------------------------
---------------------------------------------------------------
   Variable    Rhs norm      N_iter  Norm. residual      derive
---------------------------------------------------------------
c  Pressure     0.11668E+03     304   0.63945E-08   0.14252E+01 
c  VelocityX    0.29909E+05       4   0.18284E-08   0.64123E-04 
c  VelocityY    0.24400E+04       5   0.63050E-10   0.29378E-04 
c  VelocityZ    0.24445E+04       5   0.47542E-10   0.30295E-04 
c  TempC        0.30775E+08       1   0.12218E-18   0.00000E+00 
---------------------------------------------------------------
  
  

   ** INFORMATION ON VARIABLES
      ------------------------
---------------------------------------------------------------
   Variable      Min. value    Max. value   Min clip   Max clip
---------------------------------------------------------------
v  Pressure    -0.20214E+01   0.28957E+01         --         -- 
v  VelocityX   -0.30904E-01   0.25217E+00         --         -- 
v  VelocityY   -0.14798E+00   0.13210E+00         --         -- 
v  VelocityZ   -0.12767E+00   0.12159E+00         --         -- 
v  TempC        0.50000E+02   0.50000E+02          0          0 
v  Density      0.11786E+01   0.11786E+01          0          0 
v  LamVisc      0.18300E-04   0.18300E-04          0          0 
v  CourantNb    0.48272E-03   0.23487E-01          0          0 
v  FourierNb    0.14422E-06   0.17104E-04          0          0 
v  total_pressu 0.10132E+06   0.10133E+06          0          0 
---------------------------------------------------------------
  
  

   ** INFORMATION ON CLIPPINGS
      ------------------------
---------------------------------------------------------------
   Variable    Min wo clips  Max wo clips   Min clip   Max clip
---------------------------------------------------------------
a  TempC        0.50000E+02   0.50000E+02          0          0 
---------------------------------------------------------------
  
  

   ** INFORMATION ON THE TIME STEP
      -----------------------------
---------------------------------------------------------------
Criterion    Value      at         xc           yc           zc
---------------------------------------------------------------
Courant min  0.48272E-03  0.15308E+03  0.12340E+02  0.30139E+02  
Courant max  0.23487E-01  0.15139E+03 -0.32005E+02 -0.25548E+02  
Fourier min  0.14422E-06  0.12654E+03  0.57031E+02  0.62507E+02  
Fourier max  0.17104E-04  0.15056E+03 -0.39574E+02  0.12175E+02  
Cou_Fou min  0.48392E-03  0.15308E+03  0.12340E+02  0.30139E+02  
Cou_Fou max  0.23497E-01  0.15139E+03 -0.32005E+02 -0.25548E+02  
---------------------------------------------------------------
  
  

 CPU TIME FOR THE TIME STEP                5:        0.14441E+01

===============================================================


 INSTANT    0.600000000E+00   TIME STEP NUMBER               6
 ============================================================= 




Code_Saturne: cs_gui_boundary_conditions.c:1074: Warning
The group or attribute "inlet" in the selection
criteria:
"inlet"
 does not correspond to any boundary face.


Code_Saturne: cs_gui_boundary_conditions.c:1074: Warning
The group or attribute "outlet" in the selection
criteria:
"outlet"
 does not correspond to any boundary face.


Code_Saturne: cs_gui_boundary_conditions.c:1074: Warning
The group or attribute "wall" in the selection
criteria:
"wall"
 does not correspond to any boundary face.


Code_Saturne: cs_gui_boundary_conditions.c:1074: Warning
The group or attribute "sym" in the selection
criteria:
"sym"
 does not correspond to any boundary face.


Code_Saturne: cs_gui_boundary_conditions.c:1074: Warning
The group or attribute "inlet" in the selection
criteria:
"not (inlet or outlet or wall or sym)"
 does not correspond to any boundary face.


Code_Saturne: cs_gui_boundary_conditions.c:1074: Warning
The group or attribute "inlet" in the selection
criteria:
"not (inlet or outlet or wall or sym or not (inlet or outlet or wall or sym))"
 does not correspond to any boundary face.


Code_Saturne: cs_gui_boundary_conditions.c:1074: Warning
The group or attribute "inlet" in the selection
criteria:
"inlet"
 does not correspond to any boundary face.


Code_Saturne: cs_gui_boundary_conditions.c:1074: Warning
The group or attribute "outlet" in the selection
criteria:
"outlet"
 does not correspond to any boundary face.


Code_Saturne: cs_gui_boundary_conditions.c:1074: Warning
The group or attribute "wall" in the selection
criteria:
"wall"
 does not correspond to any boundary face.


Code_Saturne: cs_gui_boundary_conditions.c:1074: Warning
The group or attribute "sym" in the selection
criteria:
"sym"
 does not correspond to any boundary face.


Code_Saturne: cs_gui_boundary_conditions.c:1074: Warning
The group or attribute "inlet" in the selection
criteria:
"not (inlet or outlet or wall or sym)"
 does not correspond to any boundary face.


Code_Saturne: cs_gui_boundary_conditions.c:1074: Warning
The group or attribute "inlet" in the selection
criteria:
"not (inlet or outlet or wall or sym or not (inlet or outlet or wall or sym))"
 does not correspond to any boundary face.


   ** BOUNDARY MASS FLOW INFORMATION
      ------------------------------

---------------------------------------------------------------
Boundary type          Code    Nb faces           Mass flow
---------------------------------------------------------------
Inlet                     2           0         0.000000000E+00
Smooth wall               5           0         0.000000000E+00
Rough wall                6           0         0.000000000E+00
Symmetry                  4           0         0.000000000E+00
Free outlet               3       11002        -0.167276098E-04
Undefined                 1           0         0.000000000E+00
---------------------------------------------------------------

Incoming flow detained for       7559 outlet faces on      11002

   ** INFORMATION ON CONVERGENCE
      --------------------------
---------------------------------------------------------------
   Variable    Rhs norm      N_iter  Norm. residual      derive
---------------------------------------------------------------
c  Pressure     0.10391E+03     301   0.97460E-08   0.12241E+01 
c  VelocityX    0.29468E+05       4   0.24278E-08   0.58933E-04 
c  VelocityY    0.28529E+04       5   0.96744E-10   0.30739E-04 
c  VelocityZ    0.28618E+04       5   0.68750E-10   0.31634E-04 
c  TempC        0.30775E+08       1   0.12085E-18   0.00000E+00 
---------------------------------------------------------------
  
  

   ** INFORMATION ON VARIABLES
      ------------------------
---------------------------------------------------------------
   Variable      Min. value    Max. value   Min clip   Max clip
---------------------------------------------------------------
v  Pressure    -0.18447E+01   0.37200E+01         --         -- 
v  VelocityX   -0.63939E-01   0.26814E+00         --         -- 
v  VelocityY   -0.19442E+00   0.17167E+00         --         -- 
v  VelocityZ   -0.16842E+00   0.15422E+00         --         -- 
v  TempC        0.50000E+02   0.50000E+02          0          0 
v  Density      0.11786E+01   0.11786E+01          0          0 
v  LamVisc      0.18300E-04   0.18300E-04          0          0 
v  CourantNb    0.20373E-03   0.26710E-01          0          0 
v  FourierNb    0.14422E-06   0.17104E-04          0          0 
v  total_pressu 0.10132E+06   0.10133E+06          0          0 
---------------------------------------------------------------
  
  

   ** INFORMATION ON CLIPPINGS
      ------------------------
---------------------------------------------------------------
   Variable    Min wo clips  Max wo clips   Min clip   Max clip
---------------------------------------------------------------
a  TempC        0.50000E+02   0.50000E+02          0          0 
---------------------------------------------------------------
  
  

   ** INFORMATION ON THE TIME STEP
      -----------------------------
---------------------------------------------------------------
Criterion    Value      at         xc           yc           zc
---------------------------------------------------------------
Courant min  0.20373E-03  0.32075E+01 -0.36379E+02  0.66175E+02  
Courant max  0.26710E-01  0.15139E+03 -0.32005E+02 -0.25548E+02  
Fourier min  0.14422E-06  0.12654E+03  0.57031E+02  0.62507E+02  
Fourier max  0.17104E-04  0.15056E+03 -0.39574E+02  0.12175E+02  
Cou_Fou min  0.20504E-03  0.32075E+01 -0.36379E+02  0.66175E+02  
Cou_Fou max  0.26720E-01  0.15139E+03 -0.32005E+02 -0.25548E+02  
---------------------------------------------------------------
  
  

 CPU TIME FOR THE TIME STEP                6:        0.14201E+01

===============================================================


 INSTANT    0.700000000E+00   TIME STEP NUMBER               7
 ============================================================= 




Code_Saturne: cs_gui_boundary_conditions.c:1074: Warning
The group or attribute "inlet" in the selection
criteria:
"inlet"
 does not correspond to any boundary face.


Code_Saturne: cs_gui_boundary_conditions.c:1074: Warning
The group or attribute "outlet" in the selection
criteria:
"outlet"
 does not correspond to any boundary face.


Code_Saturne: cs_gui_boundary_conditions.c:1074: Warning
The group or attribute "wall" in the selection
criteria:
"wall"
 does not correspond to any boundary face.


Code_Saturne: cs_gui_boundary_conditions.c:1074: Warning
The group or attribute "sym" in the selection
criteria:
"sym"
 does not correspond to any boundary face.


Code_Saturne: cs_gui_boundary_conditions.c:1074: Warning
The group or attribute "inlet" in the selection
criteria:
"not (inlet or outlet or wall or sym)"
 does not correspond to any boundary face.


Code_Saturne: cs_gui_boundary_conditions.c:1074: Warning
The group or attribute "inlet" in the selection
criteria:
"not (inlet or outlet or wall or sym or not (inlet or outlet or wall or sym))"
 does not correspond to any boundary face.


Code_Saturne: cs_gui_boundary_conditions.c:1074: Warning
The group or attribute "inlet" in the selection
criteria:
"inlet"
 does not correspond to any boundary face.


Code_Saturne: cs_gui_boundary_conditions.c:1074: Warning
The group or attribute "outlet" in the selection
criteria:
"outlet"
 does not correspond to any boundary face.


Code_Saturne: cs_gui_boundary_conditions.c:1074: Warning
The group or attribute "wall" in the selection
criteria:
"wall"
 does not correspond to any boundary face.


Code_Saturne: cs_gui_boundary_conditions.c:1074: Warning
The group or attribute "sym" in the selection
criteria:
"sym"
 does not correspond to any boundary face.


Code_Saturne: cs_gui_boundary_conditions.c:1074: Warning
The group or attribute "inlet" in the selection
criteria:
"not (inlet or outlet or wall or sym)"
 does not correspond to any boundary face.


Code_Saturne: cs_gui_boundary_conditions.c:1074: Warning
The group or attribute "inlet" in the selection
criteria:
"not (inlet or outlet or wall or sym or not (inlet or outlet or wall or sym))"
 does not correspond to any boundary face.


   ** BOUNDARY MASS FLOW INFORMATION
      ------------------------------

---------------------------------------------------------------
Boundary type          Code    Nb faces           Mass flow
---------------------------------------------------------------
Inlet                     2           0         0.000000000E+00
Smooth wall               5           0         0.000000000E+00
Rough wall                6           0         0.000000000E+00
Symmetry                  4           0         0.000000000E+00
Free outlet               3       11002        -0.150455519E-04
Undefined                 1           0         0.000000000E+00
---------------------------------------------------------------

Incoming flow detained for       7722 outlet faces on      11002

   ** INFORMATION ON CONVERGENCE
      --------------------------
---------------------------------------------------------------
   Variable    Rhs norm      N_iter  Norm. residual      derive
---------------------------------------------------------------
c  Pressure     0.88825E+02     301   0.89031E-08   0.10252E+01 
c  VelocityX    0.28965E+05       4   0.28585E-08   0.56446E-04 
c  VelocityY    0.32822E+04       5   0.12250E-09   0.30737E-04 
c  VelocityZ    0.32952E+04       5   0.90135E-10   0.31647E-04 
c  TempC        0.30775E+08       1   0.11865E-18   0.00000E+00 
---------------------------------------------------------------
  
  

   ** INFORMATION ON VARIABLES
      ------------------------
---------------------------------------------------------------
   Variable      Min. value    Max. value   Min clip   Max clip
---------------------------------------------------------------
v  Pressure    -0.14751E+01   0.44348E+01         --         -- 
v  VelocityX   -0.98142E-01   0.28387E+00         --         -- 
v  VelocityY   -0.23500E+00   0.20552E+00         --         -- 
v  VelocityZ   -0.20575E+00   0.18811E+00         --         -- 
v  TempC        0.50000E+02   0.50000E+02          0          0 
v  Density      0.11786E+01   0.11786E+01          0          0 
v  LamVisc      0.18300E-04   0.18300E-04          0          0 
v  CourantNb    0.26175E-03   0.30026E-01          0          0 
v  FourierNb    0.14422E-06   0.17104E-04          0          0 
v  total_pressu 0.10132E+06   0.10133E+06          0          0 
---------------------------------------------------------------
  
  

   ** INFORMATION ON CLIPPINGS
      ------------------------
---------------------------------------------------------------
   Variable    Min wo clips  Max wo clips   Min clip   Max clip
---------------------------------------------------------------
a  TempC        0.50000E+02   0.50000E+02          0          0 
---------------------------------------------------------------
  
  

   ** INFORMATION ON THE TIME STEP
      -----------------------------
---------------------------------------------------------------
Criterion    Value      at         xc           yc           zc
---------------------------------------------------------------
Courant min  0.26175E-03  0.15348E+03  0.26384E+02 -0.14952E+02  
Courant max  0.30026E-01  0.15139E+03 -0.32005E+02 -0.25548E+02  
Fourier min  0.14422E-06  0.12654E+03  0.57031E+02  0.62507E+02  
Fourier max  0.17104E-04  0.15056E+03 -0.39574E+02  0.12175E+02  
Cou_Fou min  0.26344E-03  0.15348E+03  0.26384E+02 -0.14952E+02  
Cou_Fou max  0.30035E-01  0.15139E+03 -0.32005E+02 -0.25548E+02  
---------------------------------------------------------------
  
  

 CPU TIME FOR THE TIME STEP                7:        0.14281E+01

===============================================================


 INSTANT    0.800000000E+00   TIME STEP NUMBER               8
 ============================================================= 




Code_Saturne: cs_gui_boundary_conditions.c:1074: Warning
The group or attribute "inlet" in the selection
criteria:
"inlet"
 does not correspond to any boundary face.


Code_Saturne: cs_gui_boundary_conditions.c:1074: Warning
The group or attribute "outlet" in the selection
criteria:
"outlet"
 does not correspond to any boundary face.


Code_Saturne: cs_gui_boundary_conditions.c:1074: Warning
The group or attribute "wall" in the selection
criteria:
"wall"
 does not correspond to any boundary face.


Code_Saturne: cs_gui_boundary_conditions.c:1074: Warning
The group or attribute "sym" in the selection
criteria:
"sym"
 does not correspond to any boundary face.


Code_Saturne: cs_gui_boundary_conditions.c:1074: Warning
The group or attribute "inlet" in the selection
criteria:
"not (inlet or outlet or wall or sym)"
 does not correspond to any boundary face.


Code_Saturne: cs_gui_boundary_conditions.c:1074: Warning
The group or attribute "inlet" in the selection
criteria:
"not (inlet or outlet or wall or sym or not (inlet or outlet or wall or sym))"
 does not correspond to any boundary face.


Code_Saturne: cs_gui_boundary_conditions.c:1074: Warning
The group or attribute "inlet" in the selection
criteria:
"inlet"
 does not correspond to any boundary face.


Code_Saturne: cs_gui_boundary_conditions.c:1074: Warning
The group or attribute "outlet" in the selection
criteria:
"outlet"
 does not correspond to any boundary face.


Code_Saturne: cs_gui_boundary_conditions.c:1074: Warning
The group or attribute "wall" in the selection
criteria:
"wall"
 does not correspond to any boundary face.


Code_Saturne: cs_gui_boundary_conditions.c:1074: Warning
The group or attribute "sym" in the selection
criteria:
"sym"
 does not correspond to any boundary face.


Code_Saturne: cs_gui_boundary_conditions.c:1074: Warning
The group or attribute "inlet" in the selection
criteria:
"not (inlet or outlet or wall or sym)"
 does not correspond to any boundary face.


Code_Saturne: cs_gui_boundary_conditions.c:1074: Warning
The group or attribute "inlet" in the selection
criteria:
"not (inlet or outlet or wall or sym or not (inlet or outlet or wall or sym))"
 does not correspond to any boundary face.


   ** BOUNDARY MASS FLOW INFORMATION
      ------------------------------

---------------------------------------------------------------
Boundary type          Code    Nb faces           Mass flow
---------------------------------------------------------------
Inlet                     2           0         0.000000000E+00
Smooth wall               5           0         0.000000000E+00
Rough wall                6           0         0.000000000E+00
Symmetry                  4           0         0.000000000E+00
Free outlet               3       11002        -0.139849635E-04
Undefined                 1           0         0.000000000E+00
---------------------------------------------------------------

Incoming flow detained for       7879 outlet faces on      11002

   ** INFORMATION ON CONVERGENCE
      --------------------------
---------------------------------------------------------------
   Variable    Rhs norm      N_iter  Norm. residual      derive
---------------------------------------------------------------
c  Pressure     0.76336E+02     299   0.80740E-08   0.85372E+00 
c  VelocityX    0.28416E+05       4   0.29864E-08   0.61133E-04 
c  VelocityY    0.36980E+04       5   0.12776E-09   0.31198E-04 
c  VelocityZ    0.37163E+04       5   0.10196E-09   0.32067E-04 
c  TempC        0.30775E+08       1   0.11619E-18   0.00000E+00 
---------------------------------------------------------------
  
  

   ** INFORMATION ON VARIABLES
      ------------------------
---------------------------------------------------------------
   Variable      Min. value    Max. value   Min clip   Max clip
---------------------------------------------------------------
v  Pressure    -0.10590E+01   0.50434E+01         --         -- 
v  VelocityX   -0.13236E+00   0.29369E+00         --         -- 
v  VelocityY   -0.26796E+00   0.24224E+00         --         -- 
v  VelocityZ   -0.23769E+00   0.22572E+00         --         -- 
v  TempC        0.50000E+02   0.50000E+02          0          0 
v  Density      0.11786E+01   0.11786E+01          0          0 
v  LamVisc      0.18300E-04   0.18300E-04          0          0 
v  CourantNb    0.20381E-03   0.32628E-01          0          0 
v  FourierNb    0.14422E-06   0.17104E-04          0          0 
v  total_pressu 0.10132E+06   0.10133E+06          0          0 
---------------------------------------------------------------
  
  

   ** INFORMATION ON CLIPPINGS
      ------------------------
---------------------------------------------------------------
   Variable    Min wo clips  Max wo clips   Min clip   Max clip
---------------------------------------------------------------
a  TempC        0.50000E+02   0.50000E+02          0          0 
---------------------------------------------------------------
  
  

   ** INFORMATION ON THE TIME STEP
      -----------------------------
---------------------------------------------------------------
Criterion    Value      at         xc           yc           zc
---------------------------------------------------------------
Courant min  0.20381E-03  0.29861E+01  0.56635E+02  0.26391E+02  
Courant max  0.32628E-01  0.15139E+03 -0.32005E+02 -0.25548E+02  
Fourier min  0.14422E-06  0.12654E+03  0.57031E+02  0.62507E+02  
Fourier max  0.17104E-04  0.15056E+03 -0.39574E+02  0.12175E+02  
Cou_Fou min  0.20486E-03  0.29861E+01  0.56635E+02  0.26391E+02  
Cou_Fou max  0.32637E-01  0.15139E+03 -0.32005E+02 -0.25548E+02  
---------------------------------------------------------------
  
  

 CPU TIME FOR THE TIME STEP                8:        0.14041E+01

===============================================================


 INSTANT    0.900000000E+00   TIME STEP NUMBER               9
 ============================================================= 




Code_Saturne: cs_gui_boundary_conditions.c:1074: Warning
The group or attribute "inlet" in the selection
criteria:
"inlet"
 does not correspond to any boundary face.


Code_Saturne: cs_gui_boundary_conditions.c:1074: Warning
The group or attribute "outlet" in the selection
criteria:
"outlet"
 does not correspond to any boundary face.


Code_Saturne: cs_gui_boundary_conditions.c:1074: Warning
The group or attribute "wall" in the selection
criteria:
"wall"
 does not correspond to any boundary face.


Code_Saturne: cs_gui_boundary_conditions.c:1074: Warning
The group or attribute "sym" in the selection
criteria:
"sym"
 does not correspond to any boundary face.


Code_Saturne: cs_gui_boundary_conditions.c:1074: Warning
The group or attribute "inlet" in the selection
criteria:
"not (inlet or outlet or wall or sym)"
 does not correspond to any boundary face.


Code_Saturne: cs_gui_boundary_conditions.c:1074: Warning
The group or attribute "inlet" in the selection
criteria:
"not (inlet or outlet or wall or sym or not (inlet or outlet or wall or sym))"
 does not correspond to any boundary face.


Code_Saturne: cs_gui_boundary_conditions.c:1074: Warning
The group or attribute "inlet" in the selection
criteria:
"inlet"
 does not correspond to any boundary face.


Code_Saturne: cs_gui_boundary_conditions.c:1074: Warning
The group or attribute "outlet" in the selection
criteria:
"outlet"
 does not correspond to any boundary face.


Code_Saturne: cs_gui_boundary_conditions.c:1074: Warning
The group or attribute "wall" in the selection
criteria:
"wall"
 does not correspond to any boundary face.


Code_Saturne: cs_gui_boundary_conditions.c:1074: Warning
The group or attribute "sym" in the selection
criteria:
"sym"
 does not correspond to any boundary face.


Code_Saturne: cs_gui_boundary_conditions.c:1074: Warning
The group or attribute "inlet" in the selection
criteria:
"not (inlet or outlet or wall or sym)"
 does not correspond to any boundary face.


Code_Saturne: cs_gui_boundary_conditions.c:1074: Warning
The group or attribute "inlet" in the selection
criteria:
"not (inlet or outlet or wall or sym or not (inlet or outlet or wall or sym))"
 does not correspond to any boundary face.


   ** BOUNDARY MASS FLOW INFORMATION
      ------------------------------

---------------------------------------------------------------
Boundary type          Code    Nb faces           Mass flow
---------------------------------------------------------------
Inlet                     2           0         0.000000000E+00
Smooth wall               5           0         0.000000000E+00
Rough wall                6           0         0.000000000E+00
Symmetry                  4           0         0.000000000E+00
Free outlet               3       11002        -0.142431463E-04
Undefined                 1           0         0.000000000E+00
---------------------------------------------------------------

Incoming flow detained for       7831 outlet faces on      11002

   ** INFORMATION ON CONVERGENCE
      --------------------------
---------------------------------------------------------------
   Variable    Rhs norm      N_iter  Norm. residual      derive
---------------------------------------------------------------
c  Pressure     0.75641E+02     297   0.74760E-08   0.79590E+00 
c  VelocityX    0.27840E+05       4   0.22740E-08   0.87475E-04 
c  VelocityY    0.40671E+04       5   0.10146E-09   0.32563E-04 
c  VelocityZ    0.40898E+04       5   0.91030E-10   0.33699E-04 
c  TempC        0.30775E+08       1   0.11545E-18   0.00000E+00 
---------------------------------------------------------------
  
  

   ** INFORMATION ON VARIABLES
      ------------------------
---------------------------------------------------------------
   Variable      Min. value    Max. value   Min clip   Max clip
---------------------------------------------------------------
v  Pressure    -0.82101E+00   0.54948E+01         --         -- 
v  VelocityX   -0.16477E+00   0.31348E+00         --         -- 
v  VelocityY   -0.30160E+00   0.29882E+00         --         -- 
v  VelocityZ   -0.26470E+00   0.26071E+00         --         -- 
v  TempC        0.50000E+02   0.50000E+02          0          0 
v  Density      0.11786E+01   0.11786E+01          0          0 
v  LamVisc      0.18300E-04   0.18300E-04          0          0 
v  CourantNb    0.13511E-03   0.31765E-01          0          0 
v  FourierNb    0.14422E-06   0.16545E-04          0          0 
v  total_pressu 0.10132E+06   0.10133E+06          0          0 
---------------------------------------------------------------
  
  

   ** INFORMATION ON CLIPPINGS
      ------------------------
---------------------------------------------------------------
   Variable    Min wo clips  Max wo clips   Min clip   Max clip
---------------------------------------------------------------
a  TempC        0.50000E+02   0.50000E+02          0          0 
---------------------------------------------------------------
  
  

   ** INFORMATION ON THE TIME STEP
      -----------------------------
---------------------------------------------------------------
Criterion    Value      at         xc           yc           zc
---------------------------------------------------------------
Courant min  0.13511E-03  0.31995E+01  0.21647E+02 -0.64637E+01  
Courant max  0.31765E-01  0.15027E+03 -0.40985E+02 -0.40785E+01  
Fourier min  0.14422E-06  0.12654E+03  0.57031E+02  0.62507E+02  
Fourier max  0.16545E-04  0.15056E+03 -0.39574E+02  0.12175E+02  
Cou_Fou min  0.13604E-03  0.31995E+01  0.21647E+02 -0.64637E+01  
Cou_Fou max  0.31781E-01  0.15027E+03 -0.40985E+02 -0.40785E+01  
---------------------------------------------------------------
  
  

 CPU TIME FOR THE TIME STEP                9:        0.15561E+01

===============================================================


 INSTANT    0.100000000E+01   TIME STEP NUMBER              10
 ============================================================= 




Code_Saturne: cs_gui_boundary_conditions.c:1074: Warning
The group or attribute "inlet" in the selection
criteria:
"inlet"
 does not correspond to any boundary face.


Code_Saturne: cs_gui_boundary_conditions.c:1074: Warning
The group or attribute "outlet" in the selection
criteria:
"outlet"
 does not correspond to any boundary face.


Code_Saturne: cs_gui_boundary_conditions.c:1074: Warning
The group or attribute "wall" in the selection
criteria:
"wall"
 does not correspond to any boundary face.


Code_Saturne: cs_gui_boundary_conditions.c:1074: Warning
The group or attribute "sym" in the selection
criteria:
"sym"
 does not correspond to any boundary face.


Code_Saturne: cs_gui_boundary_conditions.c:1074: Warning
The group or attribute "inlet" in the selection
criteria:
"not (inlet or outlet or wall or sym)"
 does not correspond to any boundary face.


Code_Saturne: cs_gui_boundary_conditions.c:1074: Warning
The group or attribute "inlet" in the selection
criteria:
"not (inlet or outlet or wall or sym or not (inlet or outlet or wall or sym))"
 does not correspond to any boundary face.


Code_Saturne: cs_gui_boundary_conditions.c:1074: Warning
The group or attribute "inlet" in the selection
criteria:
"inlet"
 does not correspond to any boundary face.


Code_Saturne: cs_gui_boundary_conditions.c:1074: Warning
The group or attribute "outlet" in the selection
criteria:
"outlet"
 does not correspond to any boundary face.


Code_Saturne: cs_gui_boundary_conditions.c:1074: Warning
The group or attribute "wall" in the selection
criteria:
"wall"
 does not correspond to any boundary face.


Code_Saturne: cs_gui_boundary_conditions.c:1074: Warning
The group or attribute "sym" in the selection
criteria:
"sym"
 does not correspond to any boundary face.


Code_Saturne: cs_gui_boundary_conditions.c:1074: Warning
The group or attribute "inlet" in the selection
criteria:
"not (inlet or outlet or wall or sym)"
 does not correspond to any boundary face.


Code_Saturne: cs_gui_boundary_conditions.c:1074: Warning
The group or attribute "inlet" in the selection
criteria:
"not (inlet or outlet or wall or sym or not (inlet or outlet or wall or sym))"
 does not correspond to any boundary face.


   ** BOUNDARY MASS FLOW INFORMATION
      ------------------------------

---------------------------------------------------------------
Boundary type          Code    Nb faces           Mass flow
---------------------------------------------------------------
Inlet                     2           0         0.000000000E+00
Smooth wall               5           0         0.000000000E+00
Rough wall                6           0         0.000000000E+00
Symmetry                  4           0         0.000000000E+00
Free outlet               3       11002        -0.140489669E-04
Undefined                 1           0         0.000000000E+00
---------------------------------------------------------------

Incoming flow detained for       7713 outlet faces on      11002


 Write final restart files
   checkpoint at iteration         10, Physical time    0.10000E+01


   ** Writing the main restart file
      -----------------------------

 Start writing
   End writing the dimensions                           
   End writing the options                              
   End writing the main variables                       
 End writing

   ** Writing the auxilliary restart file
      -----------------------------------

 Start writing
   End writing the dimensions and options               
   End writing the physical properties                  
   End writing the time step                            
   End writing the mass fluxes                          
   End writing the boundary conditions                  
 End writing


 CPU time for restart files:    0.20001E-01



   ** INFORMATION ON CONVERGENCE
      --------------------------
---------------------------------------------------------------
   Variable    Rhs norm      N_iter  Norm. residual      derive
---------------------------------------------------------------
c  Pressure     0.89838E+02     284   0.97632E-08   0.84284E+00 
c  VelocityX    0.27263E+05       4   0.12441E-08   0.13509E-03 
c  VelocityY    0.43601E+04       4   0.60370E-08   0.37918E-04 
c  VelocityZ    0.43822E+04       4   0.73144E-08   0.38704E-04 
c  TempC        0.30775E+08       1   0.11104E-18   0.00000E+00 
---------------------------------------------------------------
  
  

   ** INFORMATION ON VARIABLES
      ------------------------
---------------------------------------------------------------
   Variable      Min. value    Max. value   Min clip   Max clip
---------------------------------------------------------------
v  Pressure    -0.62684E+00   0.58775E+01         --         -- 
v  VelocityX   -0.19720E+00   0.33517E+00         --         -- 
v  VelocityY   -0.34285E+00   0.35006E+00         --         -- 
v  VelocityZ   -0.29926E+00   0.29118E+00         --         -- 
v  TempC        0.50000E+02   0.50000E+02          0          0 
v  Density      0.11786E+01   0.11786E+01          0          0 
v  LamVisc      0.18300E-04   0.18300E-04          0          0 
v  CourantNb    0.12159E-03   0.35500E-01          0          0 
v  FourierNb    0.14422E-06   0.17104E-04          0          0 
v  total_pressu 0.10132E+06   0.10133E+06          0          0 
---------------------------------------------------------------
  
  

   ** INFORMATION ON CLIPPINGS
      ------------------------
---------------------------------------------------------------
   Variable    Min wo clips  Max wo clips   Min clip   Max clip
---------------------------------------------------------------
a  TempC        0.50000E+02   0.50000E+02          0          0 
---------------------------------------------------------------
  
  

   ** INFORMATION ON THE TIME STEP
      -----------------------------
---------------------------------------------------------------
Criterion    Value      at         xc           yc           zc
---------------------------------------------------------------
Courant min  0.12159E-03  0.15242E+03  0.23153E+01 -0.64469E+01  
Courant max  0.35500E-01  0.15139E+03 -0.32005E+02 -0.25548E+02  
Fourier min  0.14422E-06  0.12654E+03  0.57031E+02  0.62507E+02  
Fourier max  0.17104E-04  0.15056E+03 -0.39574E+02  0.12175E+02  
Cou_Fou min  0.12270E-03  0.15242E+03  0.23153E+01 -0.64469E+01  
Cou_Fou max  0.35509E-01  0.15139E+03 -0.32005E+02 -0.25548E+02  
---------------------------------------------------------------
  
  

 CPU TIME FOR THE TIME STEP               10:        0.14841E+01

===============================================================



===============================================================



                 FINAL STAGE OF THE CALCULATION              
                 ==============================              


 =========================================================== 




   ** CPU TIME FOR FINAL WRITING:    0.00000E+00
      ---------------------------                           



 =========================================================== 




                      END OF CALCULATION                     
                      ==================                     


===============================================================

Summary of multigrid for "Pressure":

  Smoother: Conjugate gradient
  Coarsest level solver:       Conjugate gradient
  Number of constructions:          10
  Number of resolutions:            20
  Number of levels:
    minimum:                        6
    maximum:                        6
    mean:                           6
  Coarse grid size (n cells):
    minimum:                        631
    maximum:                        631
    mean:                           631
  Coarse grid ranks:
    minimum:                        2
    maximum:                        2
  Number of cycles:
    minimum:                        0
    maximum:                        9
    mean:                           7
  Number of iterations:
    on finest grid:
      minimum:                      0
      maximum:                      94
      mean:                         77
    on coarsest grid:
      minimum:                      0
      maximum:                      8
      mean:                         6
    total on grids:
      minimum:                      0
      maximum:                      1144
      mean:                         896
  Associated times (construction, resolution)
    total elapsed:                         0.320         4.379
    Min local total CPU time:              0.288         3.520
    Max local total CPU time:              0.300         3.820

Summary of resolutions for TempC (Jacobi):

  Number of calls:                  10
  Minimum number of iterations:     1
  Maximum number of iterations:     1
  Mean number of iterations:        1
  Total elapsed time:                      0.023
  Min local total CPU time:                0.008
  Max local total CPU time:                0.024

Summary of resolutions for VelocityX (Jacobi):

  Number of calls:                  10
  Minimum number of iterations:     0
  Maximum number of iterations:     4
  Mean number of iterations:        3
  Total elapsed time:                      0.053
  Min local total CPU time:                0.044
  Max local total CPU time:                0.052

Summary of resolutions for VelocityY (Jacobi):

  Number of calls:                  10
  Minimum number of iterations:     0
  Maximum number of iterations:     5
  Mean number of iterations:        4
  Total elapsed time:                      0.054
  Min local total CPU time:                0.044
  Max local total CPU time:                0.056

Summary of resolutions for VelocityZ (Jacobi):

  Number of calls:                  10
  Minimum number of iterations:     0
  Maximum number of iterations:     5
  Mean number of iterations:        4
  Total elapsed time:                      0.057
  Min local total CPU time:                0.044
  Max local total CPU time:                0.056

Summary of gradient computations pour "Var. 0" (Iterative reconstruction):

  Number of calls:                  10
  Total elapsed time:                      0.542
  Min local total CPU time:                0.444
  Max local total CPU time:                0.496

Summary of gradient computations pour "Var. 1" (Iterative reconstruction):

  Number of calls:                  60
  Total elapsed time:                      2.925
  Min local total CPU time:                2.500
  Max local total CPU time:                2.628

Summary of gradient computations pour "Var. 2" (Iterative reconstruction):

  Number of calls:                  30
  Total elapsed time:                      1.530
  Min local total CPU time:                1.312
  Max local total CPU time:                1.436

Summary of gradient computations pour "Var. 3" (Iterative reconstruction):

  Number of calls:                  30
  Total elapsed time:                      1.419
  Min local total CPU time:                1.248
  Max local total CPU time:                1.308

Summary of gradient computations pour "Var. 4" (Iterative reconstruction):

  Number of calls:                  30
  Total elapsed time:                      1.462
  Min local total CPU time:                1.264
  Max local total CPU time:                1.284

Summary of gradient computations pour "Var. 5" (Iterative reconstruction):

  Number of calls:                  11
  Total elapsed time:                      0.068
  Min local total CPU time:                0.052
  Max local total CPU time:                0.068

 Destroying structures and ending computation

Mesh entity selections by criteria statistics:
  entity type     evaluations  elapsed time
  -----------------------------------------
  cells                     1       0.00028
  interior faces            0       0.00000
  boundary faces          126       0.00047

Writing of "results" (EnSight Gold) summary:

  CPU time for meshes:                     0.004
  CPU time for variables:                  0.016

  Elapsed time for meshes:                 0.006
  Elapsed time for variables:              0.020

Code_Saturne IO files read:

  mesh_input
    global:      0.00139 s,        1.947 KiB
    local:       0.00441 s,        3.139 MiB
    open:        0.02565 s, 2 open(s)

Code_Saturne IO files written:

  checkpoint/auxiliary
    global:      0.00305 s,        4.125 KiB
    local:       0.00584 s,        2.169 MiB
    open:        0.01241 s, 1 open(s)
  checkpoint/main
    global:      0.00362 s,        2.500 KiB
    local:       0.00383 s,        1.936 MiB
    open:        0.01593 s, 1 open(s)

Calculation time summary:

  User CPU time:             12.493 s
  System CPU time:            0.924 s
  Total CPU time:            26.738 s

  Elapsed time:              15.231 s
  CPU / elapsed time          0.881

Memory use summary:

  Total memory used:                             530.215 MiB
                             local minimum:      259.520 MiB  (rank 1)
                             local maximum:      270.695 MiB  (rank 0)
  Theoretical instrumented dynamic memory:        33.475 MiB
                             local minimum:       16.725 MiB  (rank 1)
                             local maximum:       16.750 MiB  (rank 0)

