/usr/lib/code_saturne/cs_preprocess --log --out mesh_input 
/home/vance/Downloads/Capstone/MCCapstone13-14/CFDTut/BetzLimitTesting/MESH/betzlimit_tunnel.med 

  .------------------------------.
  |                              |
  |   Code_Saturne Preprocessor  |
  |                              |
  `------------------------------'

  code_saturne version 2.1.0   (built Thu 26 Jan 2012 08:41:48 PM EST)

  CGNS 2.5.5 file format support
  MED 3.0.3 (HDF5 1.8.4) file format support
  Reading of compressed files ('.gz') with Zlib 1.2.3.4



Case configuration
------------------

  Date                : Wed 20 Nov 2013 09:33:35 AM EST
  System              : Linux 3.5.0-43-generic
  Machine             : studio-ub
  Processor           : Intel(R) Core(TM)2 Duo CPU     P8700  @ 2.53GHz
  Memory              : 8142684
  User                : vance (Vance Turnewitsch)
  Directory           : /home/vance/Downloads/Capstone/MCCapstone13-14/CFDTut/BetzLimitTesting/betzlimit_testing/RESU/20131120-0933

  Case name           : preprocess
  Mesh file           : /home/vance/Downloads/Capstone/MCCapstone13-14/CFDTut/BetzLimitTesting/MESH/betzlimit_tunnel.med



Reading mesh from file in MED (EDF/CEA) format
----------------------
  Mesh file: /home/vance/Downloads/Capstone/MCCapstone13-14/CFDTut/BetzLimitTesting/MESH/betzlimit_tunnel.med


  Mesh name: Mesh_1

  Number of vertices                          :    11471

Warning
=======
The MED mesh contains 261 elements of type seg2
which are ignored by the Preprocessor.

  Number of faces                             :    11002
                                   Family 6   :     1489
                                   Family 7   :     1489
                                   Family 8   :     7316
                                   Family 9   :      322
                                   Family 10  :       64
                                   Family 11  :      322
  Number of cells                             :    50759
                                   Family 0   :    50759

  Wall-clock time: 0.022556 s; CPU time: 0.020001 s


Done reading mesh
-----------------
  Theoretical mesh size:               965.396 Kb
  Theoretical current memory:            1.205 Mb
  Theoretical peak memory:               2.838 Mb
  Total memory used:                    60.625 Mb

  Domain coordinate extents:

  [-1.10935e-14, -9.99988e+01, -1.00000e+02]
  [ 3.00000e+02,  9.99988e+01,  1.00000e+02]
  Number of elements                    tria3 :    11002
  Number of elements                   tetra4 :    50759



Defining families
-----------------


  Element orientation check.


End of conversion to descending connectivity
--------------------------------------------
  Theoretical mesh size:                 2.408 Mb
  Theoretical current memory:            2.670 Mb
  Theoretical peak memory:               7.699 Mb
  Total memory used:                    65.168 Mb


Main mesh properties
--------------------

  Number of cells:                                 50759
  Number of internal faces:                        96017
  Number of boundary faces:                        11002
  Number of vertices:                              11471


Definition of face and cell families
------------------------------------

  Family 1
         Group "disk_inlet"
  Number of boundary faces :      322
  Family 2
         Group "disk_outlet"
  Number of boundary faces :      322
  Family 3
         Group "disk_walls"
  Number of boundary faces :       64
  Family 4
         Group "tunnel_inlet"
  Number of boundary faces :     1489
  Family 5
         Group "tunnel_outlet"
  Number of boundary faces :     1489
  Family 6
         Group "tunnel_walls"
  Number of boundary faces :     7316
  Family 6
         Default family
         (no group)
  Number of cells          :    50759
  Number of internal faces :    96017


Write output for Kernel
-----------------------

  Opening file: mesh_input

  Wrote: "start_block:dimensions"
  Wrote: "n_cells"                         ; Type: "u8"; Size: 1
  Wrote: "n_faces"                         ; Type: "u8"; Size: 1
  Wrote: "n_vertices"                      ; Type: "u8"; Size: 1
  Wrote: "face_vertices_size"              ; Type: "u8"; Size: 1
  Wrote: "n_group_classes"                 ; Type: "i4"; Size: 1
  Wrote: "n_group_class_props_max"         ; Type: "i4"; Size: 1
  Wrote: "n_groups"                        ; Type: "u8"; Size: 1
  Wrote: "group_name_index"                ; Type: "i4"; Size: 7
  Wrote: "group_name"                      ; Type: "c "; Size: 74
  Wrote: "group_class_properties"          ; Type: "i4"; Size: 7
  Wrote: "end_block:dimensions"
  Wrote: "start_block:data"
  Wrote: "face_cells"                      ; Type: "i4"; Size: 214038
  Wrote: "cell_group_class_id"             ; Type: "i4"; Size: 50759
  Wrote: "face_group_class_id"             ; Type: "i4"; Size: 107019
  Wrote: "face_vertices_index"             ; Type: "u8"; Size: 107020
  Wrote: "face_vertices"                   ; Type: "i4"; Size: 321057
  Wrote: "vertex_coords"                   ; Type: "r8"; Size: 34413
  Wrote: "end_block:data"
  Wrote: "EOF"

  Closing file: mesh_input


Time and memory summary
-----------------------

  User CPU time                       (sec)   :        0.22
  System CPU time                     (sec)   :        0.01
  Total time                          (sec)   :        0.24
  Total CPU time / Total time                 :        0.97

Memory use summary:

  Total memory used:                                  65.168 Mb
  Theoretical instrumented dynamic memory:             7.699 Mb


  .-----------------------.
  |                       |
  |  Preprocessor finish  |
  |                       |
  `-----------------------'


