command: 
 /usr/lib/code_saturne/cs_solver --param betzlimit_cylinder_basic.xml --mpi

***************************************************************

                                  (R)
                      Code_Saturne

                      Version 2.1.0


  Copyright (C) 1998-2011 EDF S.A., France

  build Thu 26 Jan 2012 08:44:04 PM EST
  MPI version 2.1 (Open MPI 1.4.3)


  The Code_Saturne CFD tool  is free software;
  you can redistribute it and/or modify it under the terms
  of the GNU General Public License as published by the
  Free Software Foundation; either version 2 of the License,
  or (at your option) any later version.

  The Code_Saturne CFD tool is distributed in the hope that
  it will be useful, but WITHOUT ANY WARRANTY; without even
  the implied warranty of MERCHANTABILITY or FITNESS FOR A
  PARTICULAR PURPOSE.  See the GNU General Public License
  for more details.

***************************************************************


Local case configuration:

  Date:              Wed 04 Dec 2013 11:43:36 PM EST
  System:            Linux 3.5.0-43-generic
  Machine:           studio-ub
  Processor:         Intel(R) Core(TM)2 Duo CPU     P8700  @ 2.53GHz
  Memory:            7951 MB
  User:              vance (Vance Turnewitsch)
  Directory:         /home/vance/Downloads/Capstone/MCCapstone13-14/CFDTut/BetzLimitTesting/betzlimit_testing_basic/RESU/20131204-2343
  MPI ranks:         2 (appnum attribute: 0)
  I/O mode:          MPI-IO, explicit offsets

===============================================================

                   CALCULATION PREPARATION
                   =======================


 ===========================================================



 Reading metadata from file: "mesh_input"

 No error detected during the data verification
                              (interface, usini1 and others).


 ===========================================================

               CALCULATION PARAMETERS SUMMARY
               ==============================

 -----------------------------------------------------------


 ** DIMENSIONS
    ----------

 --- Geometry
       NPRFML =              1 (Nb max. family properties   )
       NFML   =              4 (Nb families                 )

 --- Physics
       NVAR   =              5 (Nb variables                )
       NSCAL  =              1 (Nb scalars                  )
       NSCAUS =              1 (Nb user scalars             )
       NSCAPP =              0 (Nb specific physics scalars )
       NPROCE =              6 (Nb cell properties          )
       NPROFA =              1 (Nb internal face properties )
       NPROFB =              2 (Nb boundary face properties )


 -----------------------------------------------------------


 ** PHYSICAL PROPERTIES
    -------------------

       GX     =    0.00000E+00 (Gravity x component         )
       GY     =    0.00000E+00 (Gravity y component         )
       GZ     =    0.00000E+00 (Gravity z component         )

       OMEGAX =    0.00000E+00 (Rotation vector x component )
       OMEGAY =    0.00000E+00 (Rotation vector y component )
       OMEGAZ =    0.00000E+00 (Rotation vector z component )
       ICORIO =          0 (Coriolis source terms       )

  -- Continuous phase: 

       RO0    =    0.11400E+01 (Reference density           )
       VISCL0 =    0.19500E-04 (Ref. molecular dyn. visc.   )
       CP0    =    0.20600E+04 (Ref. specific heat          )
       ICP    =              0 (> 0: variable CP (usphyv)   )
       P0     =    0.10132E+06 (Ref. total pressure         )
       PRED0  =    0.00000E+00 (Ref. reduced pressure       )
       T0     =    0.00000E+00 (Ref. temperature            )

       IROVAR =              0 (Density constant(0) or not(1)
       IVIVAR =              0 (Molec. visc cst.(0) or not(1)

       Initial reference point for pressure
       XYZP0  =    0.00000E+00   0.00000E+00   0.00000E+00

 -----------------------------------------------------------


 ** TURBULENCE
    ----------

 --- Continuous phase: 

   - Commons                                                 
       ITURB  =              0 (Turbulence model            )
       IDEUCH =              0 (0: one-scale model          )
                               (1: two-scale model          )
                               (2: invariant wall function  )
       YPLULI =    0.23810E+01 (Limit Y+                    )
       ILOGPO =              1 (0: power law (forbidden for
                                              k-epsilon)    )
                               (1: one-scale log law        )
       IGRHOK =              0 (1: computed Grad(rho k)     )
       ISCALT =              1 (Temperature salar number    )

 --- Constants

   - Commons                                                 
       XKAPPA =    0.42000E+00 (Von Karman constant         )
       CSTLOG =    0.52000E+01 (U+=Log(y+)/kappa +CSTLOG    )
       APOW   =    0.83000E+01 (U+=APOW (y+)**BPOW (W&W law))
       BPOW   =    0.14286E+00 (U+=APOW (y+)**BPOW (W&W law))


 -----------------------------------------------------------


 ** SECONDARY VISCOSITY
    -------------------

 --- Continuous phase:          1
       IVISSE = 

 -----------------------------------------------------------


 ** TIME STEPPING
    -------------

    UNSTEADY ALGORITHM

 --- Time step parameters

       IDTVAR =              0 (0 cst; 1,2 var (t, t-space  )
       IPTLRO =              0 (1: rho-related DT clipping  )
       COUMAX =    0.10000E+01 (Maximum target CFL          )
       FOUMAX =    0.10000E+02 (Maximum target Fourier      )
       VARRDT =    0.10000E+00 (For var. DT, max. increase  )
       DTMIN  =    0.10000E-01 (Minimum time step           )
       DTMAX  =    0.10000E+03 (Maximum time step           )
       DTREF  =    0.10000E+00 (Reference time step         )

       With a non-constant time step (IDTVAR = 1 or 2),
         when the value of COUMAX or FOUMAX is negative
         or zero, the associated time step limitation (for
         CFL and Fourier respectively) is ignored.

 --- Frozen velocity field

       ICCVFG =              0 (1: frozen velocity field    )

 --- Per-variable properties

----------------------------
 Variable  ISTAT      CDTVAR
----------------------------
 Pressure      0  0.1000E+01
 Velocity      1  0.1000E+01
 Velocity      1  0.1000E+01
 Velocity      1  0.1000E+01
 TempC         1  0.1000E+01
----------------------------

       ISTAT  =  0 ou  1       (1 for unsteady              )
       CDTVAR >  0             (time step multiplier        )

 --- Order of base time stepping scheme
       ISCHTP =              1 (1: order 1; 2: order 2      )
                                                             

 -----------------------------------------------------------


 ** CONVECTION - DIFFUSION
    ----------------------

-------------------------------------------------------------
 Variable  ICONV  IDIFF IDIFFT ISCHCV ISSTPC   BLENCV  THETAV
-------------------------------------------------------------
 Pressure      0      1      1      1      0 0.00E+00 0.10E+01
 Velocity      1      1      1      1      0 0.10E+01 0.10E+01
 Velocity      1      1      1      1      0 0.10E+01 0.10E+01
 Velocity      1      1      1      1      0 0.10E+01 0.10E+01
 TempC         1      1      1      1      0 0.10E+01 0.10E+01
-------------------------------------------------------------

       ICONV  =  0 ou  1       (1 for convection active     )
       IDIFF  =  0 ou  1       (1 for total diffusion active)
       IDIFFT =  0 ou  1       (1 for turbulent diff. active)
       ISCHCV =  0 ou  1       (SOLU or CD                  )
       ISSTPC =  0 ou  1       (1: no slope test            )
       BLENCV =  [0.;1.]       (1-upwind proportion         )
       THETAV =  [0.;1.]       (0.5 Crank-Nicolson/AB       )
                               (theta for convection-       )
                               (diffusion terms uses        )
                               ((1-theta).old+theta.new     )


 -----------------------------------------------------------


 ** STOKES
    ------
       IPHYDR =              0 (1: account for explicit
                                   balance between pressure
                                   gradient, gravity source
                                   terms, and head losses     )
       ICALHY =              0 (1: compute hydrastatic
                                   pressure for Dirichlet
                                   conditions for pressure
                                   on outlet                  )
       IPRCO  =              1 (1: pressure-continuity        )
       IPUCOU =              0 (1: reinforced U-P coupling    )
       NTERUP =              1 (n: n sweeps on navsto for
                                   velocity/pressure coupling )

  -- Continuous phase: 

       IREVMC =              0 (Velocity reconstruction mode)

       RELAXV =    0.10000E+01 for pressure (relaxation)
       ARAK   =    0.10000E+01 (Arakawa factor              )

       ISTMPF =              1 (time scheme for flow
                               (0: explicit (THETFL = 0     )
                               (1: std scheme (Saturne 1.0  )
                               (2: 2nd-order (THETFL = 0.5  )
       THETFL =   -0.99900E+03 (theta for mass flow         )
       IROEXT =              0 (density extrapolation
                               (0: explicit
                               (1: n+thetro with thetro=1/2
                               (2: n+thetro with thetro=1
       THETRO =    0.00000E+00 (theta for density
                               ((1+theta).new-theta.old
       IVIEXT =              0 (total viscosity extrapolation
                               (0: explicit
                               (1: n+thetvi with thetro=1/2
                               (2: n+thetvi with thetro=1
       THETVI =    0.00000E+00 (theta for total viscosity
                               ((1+theta).new-theta.old
       ICPEXT =              0 (specific heat extrapolation
                               (0: explicit
                               (1: n+thetcp with thetro=1/2
                               (2: n+thetcp with thetro=1
       THETCP =    0.00000E+00 (specific heat theta-scheme
                               ((1+theta).new-theta.old
       THETSN =    0.00000E+00 (Nav-Stokes S.T. theta scheme)
                               ((1+theta).new-theta.old
       THETST =    0.00000E+00 (Turbulence S.T. theta-scheme)
                               ((1+theta).new-theta.old
       EPSUP  =    0.10000E-04 (Velocity/pressure coupling
                                stop test                   )


 -----------------------------------------------------------


 ** GRADIENTS CALCULATION
    ---------------------

       IMRGRA =              0 (Reconstruction mode         )
       ANOMAX =    0.78540E+00 (Non-ortho angle: limit for  )
                               (least squares ext. neighbors)

-----------------------------------------------------------
 Variable NSWRGR NSWRSM      EPSRGR      EPSRSM      EXTRAG
-----------------------------------------------------------
 Pressure    100      2  0.1000E-04  0.1000E-07  0.0000E+00
 Velocity    100      1  0.1000E-04  0.1000E-07  0.0000E+00
 Velocity    100      1  0.1000E-04  0.1000E-07  0.0000E+00
 Velocity    100      1  0.1000E-04  0.1000E-07  0.0000E+00
 TempC       100      1  0.1000E-04  0.1000E-07  0.0000E+00
-----------------------------------------------------------  

-----------------------------------
 Variable IRCFLU IMLIGR      CLIMGR
-----------------------------------
 Pressure      1     -1  0.1500E+01
 Velocity      1     -1  0.1500E+01
 Velocity      1     -1  0.1500E+01
 Velocity      1     -1  0.1500E+01
 TempC         1     -1  0.1500E+01
-----------------------------------

       NSWRGR =                (nb sweep gradient reconstr. )
       NSWRSM =                (nb sweep rhs reconstrcution )
       EPSRGR =                (grad. reconstruction prec.  )
       EPSRSM =                (rhs   reconstruction prec.  )
       EXTRAG =  [0.;1.]       (gradients extrapolation     )
       IRCFLU =  0 ou  1       (flow reconstruction         )
       IMLIGR =  < 0, 0 ou 1   (gradient limitation method  )
       CLIMGR =  > 1 ou 1      (gradient limitation coeff.  )


 -----------------------------------------------------------


 ** FACE INTERPOLATION
    ------------------
       IMVISF =              0 (0 arithmetic                )


 -----------------------------------------------------------


 ** CALCULATION OF TEMPORAL MEANS (MOMENTS)
    ---------------------------------------

       NBMOMT =              0 (Number of moments           )

 -----------------------------------------------------------


 ** BASE ITERATIVE SOLVERS
    ----------------------

------------------------------------------
 Variable IRESOL NITMAX      EPSILO IDIRCL
------------------------------------------
 Pressure     -1  10000  0.1000E-07      1
 Velocity     -1  10000  0.1000E-07      1
 Velocity     -1  10000  0.1000E-07      1
 Velocity     -1  10000  0.1000E-07      1
 TempC        -1  10000  0.1000E-07      1
-----------------------------------

       IRESOL =            -1  (automatic solver choice     )
                IPOL*1000 + 0  (p conjuguate gradient       )
                            1  (Jacobi                      )
                IPOL*1000 + 2  (bicgstab                    )
                  avec IPOL    (preconditioning degree      )
       NITMAX =                (max number of iterations    )
       EPSILO =                (resolution precision        )
       IDIRCL = 0 ou 1         (shift diagonal if          
                                ISTAT=0 and no Dirichlet    )


 -----------------------------------------------------------


 ** MULTIGRID
    ---------

       NCEGRM =             30 (Max nb cells coarsest grid  )
       NGRMAX =             25 (Max number of levels        )
------------------------------                               
 Variable   IMGR NCYMAX NITMGF                               
------------------------------                               
 Pressure      1    100     10
 Velocity      0    100     10
 Velocity      0    100     10
 Velocity      0    100     10
 TempC         0    100     10
------------------------------

       IMGR   =  0 ou 1        (1: multigrid activated      )
       NCYMAX =                (Max number  of cycles       )
       NITMGF =                (Max nb iter on coarsest grid)


  Multigrid rank merge parameters:
    mean  coarse cells merge threshold: 300
    total coarse cells merge threshold: 500
    minimum ranks merge threshold:      1
    merge stride:                       1

 -----------------------------------------------------------


 ** SCALARS
    -------

       ITBRRB =              0 (T or H reconstruction at bdy)

------------------------------------------------------
 Variable Number ISCSTH IVISLS      VISLS0      SIGMAS
------------------------------------------------------
 TempC         1     -1      0  0.6311E-04  0.1000E+01
------------------------------------------------------

-----------------------------------
 Variable Number ISCAVR      RVARFL
-----------------------------------
 TempC         1      0  0.8000E+00
-----------------------------------

-----------------------------------------------
 Variable Number ICLVFL      SCAMIN      SCAMAX
-----------------------------------------------
 TempC         1     -1  0.5000E+02  0.2000E+03
-----------------------------------------------

-------------------------------------------------------------

       For each scalar, the number indicates it's rank
         in the list of all scalars. User scalars are placed
         first, from 1 to NSCAUS. Specific physics scalars
         are placed at the end, from
         NSCAUS+1 to NSCAPP+NSCAUS=NSCAL.

       ISCSTH = -1,0, 1 ou 2   (T (C), Passive, T (K) or H  )
       IVISLS = 0 ou >0        (Viscosity: constant or not  )
       VISLS0 = >0             (Reference viscosity         )
       SIGMAS = >0             (Schmidt                     )
       ISCAVR = 0 ou >0        (Associat. scalar if variance)
       RVARFL = >0             (Rf, cf variance dissipation )
       ICLVFL = 0, 1 ou 2      (Variance clipping mode      )
       SCAMIN =                (Min authorized value        )
       SCAMAX =                (Max authorized value        )
        For variances, SCAMIN is ignored and SCAMAX is used
          only if ICLVFL = 2

------------------------------------------------------
   Scalar        THETSS    IVSEXT      THETVS
------------------------------------------------------
          1  0.0000E+00         0  0.0000E+00
------------------------------------------------------

       THETSS =                (theta for source terms      )
                               ((1+theta).new-theta.old     )
       IVSEXT =                (extrap. total viscosity     )
                               (0: explicit                 )
                               (1: n+thetvs with thetvs=1/2 )
                               (2: n+thetvs with thetvs=1   )
       THETVS =                (theta for scalar diffusivity
                               ((1+theta).new-theta.old     )


 -----------------------------------------------------------


 ** CALCULATION MANAGEMENT
    ----------------------

 --- Restarted calculation
       ISUITE =              0 (1: restarted calculuation   )
       ILEAUX =              1 (1: also read  suiamx        )
       IECAUX =              1 (1: also write suiavx        )

       suiamx and suiavx are the auxiliary restart files.

 --- Calculation time
     The numbering of time steps and the measure of simulated
       physical time are absolute values, and not values
       relative to the current calculation.

       INPDT0 =              0 (1: 0 time step calcuation   )
       NTMABS =             10 (Final time step required    )

 --- CPU time margin
       TMARUS =   -0.10000E+01 (CPU time margin before stop )


 -----------------------------------------------------------


 ** INPUT-OUTPUT
    ------------

 --- Restart file
       NTSUIT =              0 (Checkpoint frequency )

 --- Post-processed variables

       Number Name
            2 Pressure        
            3 VelocityX       
            4 VelocityY       
            5 VelocityZ       
            6 TempC           
            9 CourantNb       
           10 FourierNb       
           11 total_pressure  
         --           --

 --- Probe history files
       NTHIST =              1 (Output frequency     )
       FRHIST =     -.10000E+01 (Output frequency (s) )
       NCAPT  =              2 (Number of probes     )
       NTHSAV =             -1 (Checkpoint frequency )

       Number Name                  Nb. probes (-1: all)
            2 Pressure                      -1
            3 VelocityX                     -1
            4 VelocityY                     -1
            5 VelocityZ                     -1
            6 TempC                         -1
            7 Density                       -1
            8 LamVisc                       -1
            9 CourantNb                     -1
           10 FourierNb                     -1
           11 total_pressure                -1
         --           --                --

 --- Log files
       NTLIST =              1 (Output frequency     )

       Number Name                IWARNI verbosity level
                                      (-999: not applicable)

            2 Pressure                       0
            3 VelocityX                      0
            4 VelocityY                      0
            5 VelocityZ                      0
            6 TempC                          0
            9 CourantNb                   -999
           10 FourierNb                   -999
           11 total_pressure              -999
         --           --                --

 --- Additional post-processing variables
       IPSTDV =            210 (Product of the following     
                                values based on activation  )
       IPSTYP =              2 (Yplus          on boundary  )
       IPSTCL =              3 (Variables      on boundary  )
       IPSTFT =              5 (Thermal flow   on boundary  )
       IPSTFO =              7 (Force exerted  on boundary  )
  and  IPSTDV =              1 (No additional output        )


 -----------------------------------------------------------


 ** ALE METHOD (MOVING MESH)
    -----------                                              

       IALE   =              0 (1: activated                )
       NALINF =           -999 (Fluid initialization
                                                  iterations)


 -----------------------------------------------------------


 Reading file:        mesh_input
 Finished reading:    mesh_input
 No "partition/domain_number_2" file available;
   domain partitioning will use a space-filling curve.

 Partitioning by space-filling curve: Morton (in bounding box).

Postprocessing output writers:
------------------------------

  -1: name: empty_cylinder_simple
      directory: postprocessing
      format: EnSight Gold
      options: 
      time dependency: fixed mesh
      output: at calculation end


 ----------------------------------------------------------

 Halo construction with standard neighborhood
 ============================================

 Face interfaces creation
 Vertex interfaces creation
 Halo creation
 Halo definition
    Local halo definition
    Distant halo creation
    Updating the faces -> cells connectivity

 Halo creation times summary

     Interface creation:                       0.0136 s
     Halo creation:                             0.0038 s

     Total time for halo creation:              0.0174 s

 ----------------------------------------------------------


 Histogram of the number of cells per rank:

    minimum value =              41558
    maximum value =              41558

      1 : [      41558 ;      41558 ] =          2

 ----------------------------------------------------------

 Histogram of the number of standard + halo cells per rank:

    minimum value =              42097
    maximum value =              42137

      1 : [      42097 ;      42105 [ =          1
      2 : [      42105 ;      42113 [ =          0
      3 : [      42113 ;      42121 [ =          0
      4 : [      42121 ;      42129 [ =          0
      5 : [      42129 ;      42137 ] =          1

 ----------------------------------------------------------

 Histogram of the number of ghost cells per rank:

    minimum value =                539
    maximum value =                579

      1 : [        539 ;        547 [ =          1
      2 : [        547 ;        555 [ =          0
      3 : [        555 ;        563 [ =          0
      4 : [        563 ;        571 [ =          0
      5 : [        571 ;        579 ] =          1

 ----------------------------------------------------------

 Histogram of the number of interior faces per rank:

    minimum value =              83419
    maximum value =              83419

      1 : [      83419 ;      83419 ] =          2

 ----------------------------------------------------------

 Histogram of the number of boundary faces per rank:

    minimum value =               1860
    maximum value =               1920

      1 : [       1860 ;       1872 [ =          1
      2 : [       1872 ;       1884 [ =          0
      3 : [       1884 ;       1896 [ =          0
      4 : [       1896 ;       1908 [ =          0
      5 : [       1908 ;       1920 ] =          1

 ----------------------------------------------------------

 Histogram of the number of interior faces per cell:

    minimum value =                  3
    maximum value =                  4

      1 : [          3 ;          4 ] =      83116

 ----------------------------------------------------------

 Histogram of the number of neighboring domains per rank:

    minimum value =                  1
    maximum value =                  1

      1 : [          1 ;          1 ] =          2

 ----------------------------------------------------------

 Global definition of the number of elements (cells, vertices, faces...)
Synchronizing cell families

 Renumbering mesh:

 Mesh coordinates:               minimum    and maximum
                       X :  0.0000000e+00  5.0000000e+01
                       Y : -9.9968918e+00  9.9968918e+00
                       Z : -9.9875692e+00  1.0000000e+01
 Mesh
     Number of cells:          83116
     Number of interior faces: 166169
     Number of boundary faces: 3780
     Number of vertices:       16925

 Groups:
    "inlet"
       boundary faces:          315
    "oulet"
       boundary faces:          315
    "wall"
       boundary faces:         3150

 --- Information on the volumes
       Minimum control volume      =  1.0555193e-02
       Maximum control volume      =  4.8189724e+00
       Total volume for the domain =  1.5681936e+04

 Computing geometric quantities (0.0373 s)
                                                             
       ALMAX  =    0.24950E+02 (Characteristic length       )
       ALMAX is the cubic root of the domain volume.



HEAD LOSS TERMS TREATMENT ACTIVATED 
                 ON   A TOTAL OF NCEPDC =          9 CELLS


===============================================================

                                                             
 ----------------------------------------------------------- 
                                                             
                                                             
 ** VARIABLES INITIALIZATION                                 
    ------------------------                                 
                                                             
 ---------------------------------                           
  Variable  Min. value  Max. value                           
 ---------------------------------                           
  Pressure  0.0000E+00  0.0000E+00
  Velocity  0.5000E+01  0.5000E+01
  Velocity  0.0000E+00  0.0000E+00
  Velocity  0.0000E+00  0.0000E+00
  TempC     0.5000E+02  0.5000E+02
 ---------------------------------                           

  VisTur    0.1000E+00  0.1000E+00
 ---------------------------------                           



-------------------------------------------------------------



===============================================================



                       MAIN CALCULATION                      
                       ================                      


===============================================================




===============================================================


 INSTANT    0.100000000E+00   TIME STEP NUMBER               1
 ============================================================= 


 ---------------------------------                           
 Property   Min. value  Max. value                           
 ---------------------------------                           
  Density   0.1140E+01  0.1140E+01
  LamVisc   0.1950E-04  0.1950E-04
 ---------------------------------                           

 --- Diffusivity:                                            
 ---------------------------------------                     
 Scalar   Number  Min. value  Max. value                     
 ---------------------------------------                     
 TempC         1  0.6311E-04  0.6311E-04
 ---------------------------------------                     



Code_Saturne: cs_gui_boundary_conditions.c:1074: Warning
The group or attribute "outlet" in the selection
criteria:
"outlet"
 does not correspond to any boundary face.


Code_Saturne: cs_gui_boundary_conditions.c:1074: Warning
The group or attribute "outlet" in the selection
criteria:
"outlet"
 does not correspond to any boundary face.


Code_Saturne: cs_gui_boundary_conditions.c:1074: Warning
The group or attribute "outlet" in the selection
criteria:
"outlet"
 does not correspond to any boundary face.

First face with boundary condition definition error
  (out of 315)
  has boundary condition type 113, center (0, 6.93238e-310, 2.28269e-316)



cs_boundary_conditions.c:410: Fatal error.


Some boundary condition definitions are incomplete or incorrect.

  For details, read the end of the calculation log,
  or visualize the error postprocessing output.


Call stack:
   1: 0x7f9d24cfd611 <cs_boundary_conditions_error+0x4c1> (libsaturne.so.0)
   2: 0x7f9d24ddba51 <typecl_+0x1a1>                  (libsaturne.so.0)
   3: 0x7f9d24cee7b4 <condli_+0x438>                  (libsaturne.so.0)
   4: 0x7f9d24dd8c20 <tridim_+0x3120>                 (libsaturne.so.0)
   5: 0x7f9d24ce1584 <caltri_+0x2f8c>                 (libsaturne.so.0)
   6: 0x7f9d24cda7fb <cs_run+0x72b>                   (libsaturne.so.0)
   7: 0x7f9d24cd9fea <main+0x1da>                     (libsaturne.so.0)
   8: 0x7f9d22f7c76d <__libc_start_main+0xed>         (libc.so.6)
   9: 0x4006b9     <>                               (cs_solver)
End of stack


