/usr/lib/code_saturne/cs_preprocess --log --out mesh_input 
/home/vance/Downloads/Capstone/MCCapstone13-14/CFDTut/WindTunnel_alpha/MESH/wind_tunnel2.med 

  .------------------------------.
  |                              |
  |   Code_Saturne Preprocessor  |
  |                              |
  `------------------------------'

  code_saturne version 2.1.0   (built Thu 26 Jan 2012 08:41:48 PM EST)

  CGNS 2.5.5 file format support
  MED 3.0.3 (HDF5 1.8.4) file format support
  Reading of compressed files ('.gz') with Zlib 1.2.3.4



Case configuration
------------------

  Date                : Wed 30 Oct 2013 10:12:31 AM EDT
  System              : Linux 3.5.0-42-generic
  Machine             : studio-ub
  Processor           : Intel(R) Core(TM)2 Duo CPU     P8700  @ 2.53GHz
  Memory              : 8142688
  User                : vance (Vance Turnewitsch)
  Directory           : /home/vance/Downloads/Capstone/MCCapstone13-14/CFDTut/WindTunnel_alpha/windtunnel_alpha/RESU/20131030-1012

  Case name           : preprocess
  Mesh file           : /home/vance/Downloads/Capstone/MCCapstone13-14/CFDTut/WindTunnel_alpha/MESH/wind_tunnel2.med



Reading mesh from file in MED (EDF/CEA) format
----------------------
  Mesh file: /home/vance/Downloads/Capstone/MCCapstone13-14/CFDTut/WindTunnel_alpha/MESH/wind_tunnel2.med


  Mesh name: mesh_d

  Number of vertices                          :    17638

Warning
=======
The MED mesh contains 500 elements of type seg2
which are ignored by the Preprocessor.

  Number of faces                             :     4302
                                   Family 6   :       24
                                   Family 7   :       24
                                   Family 8   :     3200
                                   Family 9   :      770
                                   Family 10  :      284
  Number of cells                             :    88326
                                   Family 0   :    88326

  Wall-clock time: 0.113838 s; CPU time: 0.028002 s


Done reading mesh
-----------------
  Theoretical mesh size:                 1.792 Mb
  Theoretical current memory:            2.548 Mb
  Theoretical peak memory:               4.411 Mb
  Total memory used:                    62.191 Mb

  Domain coordinate extents:

  [ 0.00000e+00, -4.75528e+01, -5.00000e+01]
  [ 6.00000e+01,  4.75528e+01,  5.00000e+01]
  Number of elements                    tria3 :     1102
  Number of elements                    quad4 :     3200
  Number of elements                   tetra4 :    85126
  Number of elements                 pyramid5 :     3200



Defining families
-----------------


  Element orientation check.


End of conversion to descending connectivity
--------------------------------------------
  Theoretical mesh size:                 5.150 Mb
  Theoretical current memory:            6.579 Mb
  Theoretical peak memory:              13.624 Mb
  Total memory used:                    71.090 Mb


Main mesh properties
--------------------

  Number of cells:                                 88326
  Number of internal faces:                       176101
  Number of boundary faces:                         4302
  Number of vertices:                              17638


Definition of face and cell families
------------------------------------

  Family 1
         Group "inlet"
  Number of boundary faces :       24
  Family 2
         Group "outlet"
  Number of boundary faces :       24
  Family 3
         Group "shroud_inlet"
  Number of boundary faces :      770
  Family 4
         Group "shroud_outlet"
  Number of boundary faces :      284
  Family 5
         Group "wall"
  Number of boundary faces :     3200
  Family 5
         Default family
         (no group)
  Number of cells          :    88326
  Number of internal faces :   176101


Write output for Kernel
-----------------------

  Opening file: mesh_input

  Wrote: "start_block:dimensions"
  Wrote: "n_cells"                         ; Type: "u8"; Size: 1
  Wrote: "n_faces"                         ; Type: "u8"; Size: 1
  Wrote: "n_vertices"                      ; Type: "u8"; Size: 1
  Wrote: "face_vertices_size"              ; Type: "u8"; Size: 1
  Wrote: "n_group_classes"                 ; Type: "i4"; Size: 1
  Wrote: "n_group_class_props_max"         ; Type: "i4"; Size: 1
  Wrote: "n_groups"                        ; Type: "u8"; Size: 1
  Wrote: "group_name_index"                ; Type: "i4"; Size: 6
  Wrote: "group_name"                      ; Type: "c "; Size: 45
  Wrote: "group_class_properties"          ; Type: "i4"; Size: 6
  Wrote: "end_block:dimensions"
  Wrote: "start_block:data"
  Wrote: "face_cells"                      ; Type: "i4"; Size: 360806
  Wrote: "cell_group_class_id"             ; Type: "i4"; Size: 88326
  Wrote: "face_group_class_id"             ; Type: "i4"; Size: 180403
  Wrote: "face_vertices_index"             ; Type: "u8"; Size: 180404
  Wrote: "face_vertices"                   ; Type: "i4"; Size: 544409
  Wrote: "vertex_coords"                   ; Type: "r8"; Size: 52914
  Wrote: "end_block:data"
  Wrote: "EOF"

  Closing file: mesh_input


Time and memory summary
-----------------------

  User CPU time                       (sec)   :        0.34
  System CPU time                     (sec)   :        0.02
  Total time                          (sec)   :        0.43
  Total CPU time / Total time                 :        0.82

Memory use summary:

  Total memory used:                                  71.090 Mb
  Theoretical instrumented dynamic memory:            13.624 Mb


  .-----------------------.
  |                       |
  |  Preprocessor finish  |
  |                       |
  `-----------------------'


