/usr/lib/code_saturne/cs_preprocess --log --out mesh_input 
/home/vance/Downloads/Capstone/MCCapstone13-14/CFDTut/AutomatedCylinder/scripts/mesh_export.med 

  .------------------------------.
  |                              |
  |   Code_Saturne Preprocessor  |
  |                              |
  `------------------------------'

  code_saturne version 2.1.0   (built Thu 26 Jan 2012 08:41:48 PM EST)

  CGNS 2.5.5 file format support
  MED 3.0.3 (HDF5 1.8.4) file format support
  Reading of compressed files ('.gz') with Zlib 1.2.3.4



Case configuration
------------------

  Date                : Wed 23 Oct 2013 06:07:08 AM EDT
  System              : Linux 3.5.0-41-generic
  Machine             : studio-ub
  Processor           : Intel(R) Core(TM)2 Duo CPU     P8700  @ 2.53GHz
  Memory              : 8142688
  User                : vance (Vance Turnewitsch)
  Directory           : /home/vance/Downloads/Capstone/MCCapstone13-14/CFDTut/AutomatedCylinder/AutoCylinder_Seg2/RESU/20131023-0607

  Case name           : preprocess
  Mesh file           : /home/vance/Downloads/Capstone/MCCapstone13-14/CFDTut/AutomatedCylinder/scripts/mesh_export.med



Reading mesh from file in MED (EDF/CEA) format
----------------------
  Mesh file: /home/vance/Downloads/Capstone/MCCapstone13-14/CFDTut/AutomatedCylinder/scripts/mesh_export.med


  Mesh name: mesh_d

  Number of vertices                          :      817

Warning
=======
The MED mesh contains 203 elements of type seg2
which are ignored by the Preprocessor.

  Number of faces                             :      910
                                   Family 6   :      380
                                   Family 7   :      380
                                   Family 8   :      150
  Number of cells                             :     3040
                                   Family 0   :     3040

  Wall-clock time: 0.007478 s; CPU time: 0.004000 s


Done reading mesh
-----------------
  Theoretical mesh size:                78.636 Kb
  Theoretical current memory:          113.000 Kb
  Theoretical peak memory:             177.000 Kb
  Total memory used:                    57.859 Mb

  Domain coordinate extents:

  [ 0.00000e+00, -1.59684e+01, -1.60000e+01]
  [ 3.00000e+01,  1.59684e+01,  1.60000e+01]
  Number of elements                    tria3 :      760
  Number of elements                    quad4 :      150
  Number of elements                   tetra4 :     2890
  Number of elements                 pyramid5 :      150



Defining families
-----------------


  Element orientation check.


End of conversion to descending connectivity
--------------------------------------------
  Theoretical mesh size:               189.995 Kb
  Theoretical current memory:          247.000 Kb
  Theoretical peak memory:             515.000 Kb
  Total memory used:                    57.883 Mb


Main mesh properties
--------------------

  Number of cells:                                  3040
  Number of internal faces:                         5700
  Number of boundary faces:                          910
  Number of vertices:                                817


Definition of face and cell families
------------------------------------

  Family 1
         Group "inlet"
  Number of boundary faces :      380
  Family 2
         Group "outlet"
  Number of boundary faces :      380
  Family 3
         Group "wall"
  Number of boundary faces :      150
  Family 3
         Default family
         (no group)
  Number of cells          :     3040
  Number of internal faces :     5700


Write output for Kernel
-----------------------

  Opening file: mesh_input

  Wrote: "start_block:dimensions"
  Wrote: "n_cells"                         ; Type: "u8"; Size: 1
  Wrote: "n_faces"                         ; Type: "u8"; Size: 1
  Wrote: "n_vertices"                      ; Type: "u8"; Size: 1
  Wrote: "face_vertices_size"              ; Type: "u8"; Size: 1
  Wrote: "n_group_classes"                 ; Type: "i4"; Size: 1
  Wrote: "n_group_class_props_max"         ; Type: "i4"; Size: 1
  Wrote: "n_groups"                        ; Type: "u8"; Size: 1
  Wrote: "group_name_index"                ; Type: "i4"; Size: 4
  Wrote: "group_name"                      ; Type: "c "; Size: 18
  Wrote: "group_class_properties"          ; Type: "i4"; Size: 4
  Wrote: "end_block:dimensions"
  Wrote: "start_block:data"
  Wrote: "face_cells"                      ; Type: "i4"; Size: 13220
  Wrote: "cell_group_class_id"             ; Type: "i4"; Size: 3040
  Wrote: "face_group_class_id"             ; Type: "i4"; Size: 6610
  Wrote: "face_vertices_index"             ; Type: "u8"; Size: 6611
  Wrote: "face_vertices"                   ; Type: "i4"; Size: 19980
  Wrote: "vertex_coords"                   ; Type: "r8"; Size: 2451
  Wrote: "end_block:data"
  Wrote: "EOF"

  Closing file: mesh_input


Time and memory summary
-----------------------

  User CPU time                       (sec)   :        0.01
  System CPU time                     (sec)   :        0.01
  Total time                          (sec)   :        0.02
  Total CPU time / Total time                 :        1.23

Memory use summary:

  Total memory used:                                  57.883 Mb
  Theoretical instrumented dynamic memory:           515.000 Kb


  .-----------------------.
  |                       |
  |  Preprocessor finish  |
  |                       |
  `-----------------------'


