/usr/lib/code_saturne/cs_preprocess --log --out mesh_input 
/home/vance/Capstone13-14/MCCapstone13-14/CFDTut/AutomatedCylinder/MESH/mesh_d_triangles.med 

  .------------------------------.
  |                              |
  |   Code_Saturne Preprocessor  |
  |                              |
  `------------------------------'

  code_saturne version 2.1.0   (built Thu 26 Jan 2012 08:41:48 PM EST)

  CGNS 2.5.5 file format support
  MED 3.0.3 (HDF5 1.8.4) file format support
  Reading of compressed files ('.gz') with Zlib 1.2.3.4



Case configuration
------------------

  Date                : Mon 21 Oct 2013 04:56:34 PM EDT
  System              : Linux 3.2.0-23-generic
  Machine             : atlacamani
  Processor           : Intel(R) Pentium(R) CPU G850 @ 2.90GHz
  Memory              : 32939288
  User                : vance (Vance)
  Directory           : /home/vance/Capstone13-14/MCCapstone13-14/CFDTut/AutomatedCylinder/AutoCylinder/RESU/20131021-1656

  Case name           : preprocess
  Mesh file           : /home/vance/Capstone13-14/MCCapstone13-14/CFDTut/AutomatedCylinder/MESH/mesh_d_triangles.med



Reading mesh from file in MED (EDF/CEA) format
----------------------
  Mesh file: /home/vance/Capstone13-14/MCCapstone13-14/CFDTut/AutomatedCylinder/MESH/mesh_d_triangles.med


  Mesh name: mesh_d

  Number of vertices                          :     3320

Warning
=======
The MED mesh contains 203 elements of type seg2
which are ignored by the Preprocessor.

  Number of faces                             :     3746
                                   Family 6   :      380
                                   Family 7   :      380
                                   Family 8   :     2986
  Number of cells                             :    14416
                                   Family 0   :    14416

  Wall-clock time: 0.006655 s; CPU time: 0.008000 s


Done reading mesh
-----------------
  Theoretical mesh size:               284.089 Kb
  Theoretical current memory:          362.000 Kb
  Theoretical peak memory:             841.000 Kb
  Total memory used:                    54.340 Mb

  Domain coordinate extents:

  [ 0.00000e+00, -1.59684e+01, -1.60000e+01]
  [ 3.00000e+01,  1.59684e+01,  1.60000e+01]
  Number of elements                    tria3 :     3746
  Number of elements                   tetra4 :    14416



Defining families
-----------------


  Element orientation check.


End of conversion to descending connectivity
--------------------------------------------
  Theoretical mesh size:               705.354 Kb
  Theoretical current memory:          783.000 Kb
  Theoretical peak memory:               2.210 Mb
  Total memory used:                    55.637 Mb


Main mesh properties
--------------------

  Number of cells:                                 14416
  Number of internal faces:                        26959
  Number of boundary faces:                         3746
  Number of vertices:                               3320


Definition of face and cell families
------------------------------------

  Family 1
         Group "inlet"
  Number of boundary faces :      380
  Family 2
         Group "outlet"
  Number of boundary faces :      380
  Family 3
         Group "wall"
  Number of boundary faces :     2986
  Family 3
         Default family
         (no group)
  Number of cells          :    14416
  Number of internal faces :    26959


Write output for Kernel
-----------------------

  Opening file: mesh_input

  Wrote: "start_block:dimensions"
  Wrote: "n_cells"                         ; Type: "u8"; Size: 1
  Wrote: "n_faces"                         ; Type: "u8"; Size: 1
  Wrote: "n_vertices"                      ; Type: "u8"; Size: 1
  Wrote: "face_vertices_size"              ; Type: "u8"; Size: 1
  Wrote: "n_group_classes"                 ; Type: "i4"; Size: 1
  Wrote: "n_group_class_props_max"         ; Type: "i4"; Size: 1
  Wrote: "n_groups"                        ; Type: "u8"; Size: 1
  Wrote: "group_name_index"                ; Type: "i4"; Size: 4
  Wrote: "group_name"                      ; Type: "c "; Size: 18
  Wrote: "group_class_properties"          ; Type: "i4"; Size: 4
  Wrote: "end_block:dimensions"
  Wrote: "start_block:data"
  Wrote: "face_cells"                      ; Type: "i4"; Size: 61410
  Wrote: "cell_group_class_id"             ; Type: "i4"; Size: 14416
  Wrote: "face_group_class_id"             ; Type: "i4"; Size: 30705
  Wrote: "face_vertices_index"             ; Type: "u8"; Size: 30706
  Wrote: "face_vertices"                   ; Type: "i4"; Size: 92115
  Wrote: "vertex_coords"                   ; Type: "r8"; Size: 9960
  Wrote: "end_block:data"
  Wrote: "EOF"

  Closing file: mesh_input


Time and memory summary
-----------------------

  User CPU time                       (sec)   :        0.03
  System CPU time                     (sec)   :        0.01
  Total time                          (sec)   :        0.04
  Total CPU time / Total time                 :        1.08

Memory use summary:

  Total memory used:                                  55.637 Mb
  Theoretical instrumented dynamic memory:             2.210 Mb


  .-----------------------.
  |                       |
  |  Preprocessor finish  |
  |                       |
  `-----------------------'


