/usr/lib/code_saturne/cs_preprocess --post-error ensight --case preprocess 
/home/vance/Downloads/Capstone/MCCapstone13-14/CFDTut/AutomatedCylinder/MESH/smooth_cone.med 

  .------------------------------.
  |                              |
  |   Code_Saturne Preprocessor  |
  |                              |
  `------------------------------'

  code_saturne version 2.1.0   (built Thu 26 Jan 2012 08:41:48 PM EST)

  CGNS 2.5.5 file format support
  MED 3.0.3 (HDF5 1.8.4) file format support
  Reading of compressed files ('.gz') with Zlib 1.2.3.4



Case configuration
------------------

  Date                : Mon 28 Oct 2013 10:08:23 AM EDT
  System              : Linux 3.5.0-42-generic
  Machine             : studio-ub
  Processor           : Intel(R) Core(TM)2 Duo CPU     P8700  @ 2.53GHz
  Memory              : 8142688
  User                : vance (Vance Turnewitsch)
  Directory           : /home/vance/Downloads/Capstone/MCCapstone13-14/CFDTut/AutomatedCylinder/SmoothCone/RESU/check_mesh

  Case name           : preprocess
  Mesh file           : /home/vance/Downloads/Capstone/MCCapstone13-14/CFDTut/AutomatedCylinder/MESH/smooth_cone.med



Reading mesh from file in MED (EDF/CEA) format
----------------------
  Mesh file: /home/vance/Downloads/Capstone/MCCapstone13-14/CFDTut/AutomatedCylinder/MESH/smooth_cone.med


  Mesh name: mesh_d

  Number of vertices                          :    97523

Warning
=======
The MED mesh contains 750 elements of type seg2
which are ignored by the Preprocessor.

  Number of faces                             :    18260
                                   Family 6   :      380
                                   Family 7   :      380
                                   Family 8   :    17500
  Number of cells                             :   483038
                                   Family 0   :   483038

  Wall-clock time: 0.171616 s; CPU time: 0.144008 s


Done reading mesh
-----------------
  Theoretical mesh size:                 9.695 Mb
  Theoretical current memory:           13.840 Mb
  Theoretical peak memory:              24.027 Mb
  Total memory used:                    82.109 Mb

  Domain coordinate extents:

  [ 0.00000e+00, -6.98619e+00, -7.00000e+00]
  [ 7.00000e+01,  6.98619e+00,  7.00000e+00]
  Number of elements                    tria3 :      760
  Number of elements                    quad4 :    17500
  Number of elements                   tetra4 :   465538
  Number of elements                 pyramid5 :    17500



Defining families
-----------------


  Element orientation check.


End of conversion to descending connectivity
--------------------------------------------
  Theoretical mesh size:                28.115 Mb
  Theoretical current memory:           35.942 Mb
  Theoretical peak memory:              74.358 Mb
  Total memory used:                   132.547 Mb


Main mesh properties
--------------------

  Number of cells:                                483038
  Number of internal faces:                       965696
  Number of boundary faces:                        18260
  Number of vertices:                              97523


Definition of face and cell families
------------------------------------

  Family 1
         Group "inlet"
  Number of boundary faces :      380
  Family 2
         Group "outlet"
  Number of boundary faces :      380
  Family 3
         Group "wall"
  Number of boundary faces :    17500
  Family 3
         Default family
         (no group)
  Number of cells          :   483038
  Number of internal faces :   965696


Write output for Kernel
-----------------------

  Opening file: mesh_input

  Wrote: "start_block:dimensions"
  Wrote: "n_cells"                         ; Type: "u8"; Size: 1
  Wrote: "n_faces"                         ; Type: "u8"; Size: 1
  Wrote: "n_vertices"                      ; Type: "u8"; Size: 1
  Wrote: "face_vertices_size"              ; Type: "u8"; Size: 1
  Wrote: "n_group_classes"                 ; Type: "i4"; Size: 1
  Wrote: "n_group_class_props_max"         ; Type: "i4"; Size: 1
  Wrote: "n_groups"                        ; Type: "u8"; Size: 1
  Wrote: "group_name_index"                ; Type: "i4"; Size: 4
  Wrote: "group_name"                      ; Type: "c "; Size: 18
  Wrote: "group_class_properties"          ; Type: "i4"; Size: 4
  Wrote: "end_block:dimensions"
  Wrote: "start_block:data"
  Wrote: "face_cells"                      ; Type: "i4"; Size: 1967912
  Wrote: "cell_group_class_id"             ; Type: "i4"; Size: 483038
  Wrote: "face_group_class_id"             ; Type: "i4"; Size: 983956
  Wrote: "face_vertices_index"             ; Type: "u8"; Size: 983957
  Wrote: "face_vertices"                   ; Type: "i4"; Size: 2969368
  Wrote: "vertex_coords"                   ; Type: "r8"; Size: 292569
  Wrote: "end_block:data"
  Wrote: "EOF"

  Closing file: mesh_input


Time and memory summary
-----------------------

  User CPU time                       (sec)   :        2.25
  System CPU time                     (sec)   :        0.16
  Total time                          (sec)   :        2.48
  Total CPU time / Total time                 :        0.97

Memory use summary:

  Total memory used:                                 132.547 Mb
  Theoretical instrumented dynamic memory:            74.358 Mb


  .-----------------------.
  |                       |
  |  Preprocessor finish  |
  |                       |
  `-----------------------'


command: 
 /usr/lib/code_saturne/cs_solver --quality --log 0 --param cs_cmd

***************************************************************

                                  (R)
                      Code_Saturne

                      Version 2.1.0


  Copyright (C) 1998-2011 EDF S.A., France

  build Thu 26 Jan 2012 08:44:04 PM EST
  MPI version 2.1 (Open MPI 1.4.3)


  The Code_Saturne CFD tool  is free software;
  you can redistribute it and/or modify it under the terms
  of the GNU General Public License as published by the
  Free Software Foundation; either version 2 of the License,
  or (at your option) any later version.

  The Code_Saturne CFD tool is distributed in the hope that
  it will be useful, but WITHOUT ANY WARRANTY; without even
  the implied warranty of MERCHANTABILITY or FITNESS FOR A
  PARTICULAR PURPOSE.  See the GNU General Public License
  for more details.

***************************************************************


Local case configuration:

  Date:              Mon 28 Oct 2013 10:08:26 AM EDT
  System:            Linux 3.5.0-42-generic
  Machine:           studio-ub
  Processor:         Intel(R) Core(TM)2 Duo CPU     P8700  @ 2.53GHz
  Memory:            7951 MB
  User:              vance (Vance Turnewitsch)
  Directory:         /home/vance/Downloads/Capstone/MCCapstone13-14/CFDTut/AutomatedCylinder/SmoothCone/RESU/check_mesh

===============================================================

                   CALCULATION PREPARATION
                   =======================


 ===========================================================



 Reading metadata from file: "mesh_input"

 No error detected during the data verification
                              (interface, usini1 and others).


 Reading file:        mesh_input
 Finished reading:    mesh_input


Postprocessing output writers:
------------------------------

  -1: name: results
      directory: postprocessing
      format: EnSight Gold
      options: binary
      time dependency: fixed mesh
      output: at calculation end

 Extended neighborhood structures definition

 Extended connectivity creation (2.36 s)
 Number of cells:                                      483038

 ----------------------------------------------------------
 Number of cells + halo cells:                         483038


 ----------------------------------------------------------
 Number of interior faces:                             965696

 ----------------------------------------------------------
 Number of boundary faces:                             18260

 ----------------------------------------------------------

 Histogram of the number of interior faces per cell:

    minimum value =                  3
    maximum value =                  4

      1 : [          3 ;          4 ] =     483038

 ----------------------------------------------------------

 Renumbering mesh:

 Mesh coordinates:               minimum    and maximum
                       X :  0.0000000e+00  7.0000000e+01
                       Y : -6.9861871e+00  6.9861871e+00
                       Z : -7.0000000e+00  7.0000000e+00
 Mesh
     Number of cells:          483038
     Number of interior faces: 965696
     Number of boundary faces: 18260
     Number of vertices:       97523

 Groups:
    "inlet"
       boundary faces:          380
    "outlet"
       boundary faces:          380
    "wall"
       boundary faces:        17500

 --- Information on the volumes
       Minimum control volume      =  1.6003742e-07
       Maximum control volume      =  8.9206403e-01
       Total volume for the domain =  3.6207580e+03

 Computing geometric quantities (0.517 s)

 Computing quality criteria

  Histogram of the interior faces warping:

    minimum value =         0.00000e+00
    maximum value =         2.84217e-14

      1 : [ 0.00000e+00 ; 2.84217e-15 [ =     962507
      2 : [ 2.84217e-15 ; 5.68434e-15 [ =          0
      3 : [ 5.68434e-15 ; 8.52651e-15 [ =          0
      4 : [ 8.52651e-15 ; 1.13687e-14 [ =          0
      5 : [ 1.13687e-14 ; 1.42109e-14 [ =          0
      6 : [ 1.42109e-14 ; 1.70530e-14 [ =       3188
      7 : [ 1.70530e-14 ; 1.98952e-14 [ =          0
      8 : [ 1.98952e-14 ; 2.27374e-14 [ =          0
      9 : [ 2.27374e-14 ; 2.55795e-14 [ =          0
     10 : [ 2.55795e-14 ; 2.84217e-14 ] =          1

  Histogram of the boundary faces warping:

    minimum value =         0.00000e+00
    maximum value =         4.66945e-06

      1 : [ 0.00000e+00 ; 4.66945e-07 [ =      18218
      2 : [ 4.66945e-07 ; 9.33889e-07 [ =         16
      3 : [ 9.33889e-07 ; 1.40083e-06 [ =          8
      4 : [ 1.40083e-06 ; 1.86778e-06 [ =         12
      5 : [ 1.86778e-06 ; 2.33472e-06 [ =          0
      6 : [ 2.33472e-06 ; 2.80167e-06 [ =          0
      7 : [ 2.80167e-06 ; 3.26861e-06 [ =          0
      8 : [ 3.26861e-06 ; 3.73556e-06 [ =          2
      9 : [ 3.73556e-06 ; 4.20250e-06 [ =          2
     10 : [ 4.20250e-06 ; 4.66945e-06 ] =          2

  Histogram of the interior faces weighting coefficient:

    minimum value =         5.00000e-01
    maximum value =         9.96399e-01

      1 : [ 5.00000e-01 ; 5.49640e-01 [ =     254124
      2 : [ 5.49640e-01 ; 5.99280e-01 [ =     208096
      3 : [ 5.99280e-01 ; 6.48920e-01 [ =     160422
      4 : [ 6.48920e-01 ; 6.98560e-01 [ =     104624
      5 : [ 6.98560e-01 ; 7.48199e-01 [ =      81426
      6 : [ 7.48199e-01 ; 7.97839e-01 [ =      76253
      7 : [ 7.97839e-01 ; 8.47479e-01 [ =      52284
      8 : [ 8.47479e-01 ; 8.97119e-01 [ =      21000
      9 : [ 8.97119e-01 ; 9.46759e-01 [ =       6658
     10 : [ 9.46759e-01 ; 9.96399e-01 ] =        809

  Histogram of the interior faces off-centering coefficient:

    minimum value =         6.28199e-04
    maximum value =         3.86440e+00

      1 : [ 6.28199e-04 ; 3.87006e-01 [ =     607803
      2 : [ 3.87006e-01 ; 7.73383e-01 [ =     330583
      3 : [ 7.73383e-01 ; 1.15976e+00 [ =      25666
      4 : [ 1.15976e+00 ; 1.54614e+00 [ =       1406
      5 : [ 1.54614e+00 ; 1.93252e+00 [ =        179
      6 : [ 1.93252e+00 ; 2.31889e+00 [ =         42
      7 : [ 2.31889e+00 ; 2.70527e+00 [ =          9
      8 : [ 2.70527e+00 ; 3.09165e+00 [ =          5
      9 : [ 3.09165e+00 ; 3.47802e+00 [ =          2
     10 : [ 3.47802e+00 ; 3.86440e+00 ] =          1

  Histogram of the interior faces non-orthogonality coefficient (in degrees):

    minimum value =         4.06328e-05
    maximum value =         8.90868e+01

      1 : [ 4.06328e-05 ; 8.90871e+00 [ =     109740
      2 : [ 8.90871e+00 ; 1.78174e+01 [ =     180770
      3 : [ 1.78174e+01 ; 2.67261e+01 [ =     195827
      4 : [ 2.67261e+01 ; 3.56347e+01 [ =     187767
      5 : [ 3.56347e+01 ; 4.45434e+01 [ =     119446
      6 : [ 4.45434e+01 ; 5.34521e+01 [ =      78973
      7 : [ 5.34521e+01 ; 6.23608e+01 [ =      49828
      8 : [ 6.23608e+01 ; 7.12694e+01 [ =      34418
      9 : [ 7.12694e+01 ; 8.01781e+01 [ =       7726
     10 : [ 8.01781e+01 ; 8.90868e+01 ] =       1201

  Histogram of the boundary faces non-orthogonality coefficient (in degrees):

    minimum value =         1.58715e-04
    maximum value =         8.28746e+01

      1 : [ 1.58715e-04 ; 8.28760e+00 [ =      17534
      2 : [ 8.28760e+00 ; 1.65750e+01 [ =         85
      3 : [ 1.65750e+01 ; 2.48625e+01 [ =        144
      4 : [ 2.48625e+01 ; 3.31499e+01 [ =        135
      5 : [ 3.31499e+01 ; 4.14374e+01 [ =        122
      6 : [ 4.14374e+01 ; 4.97248e+01 [ =         92
      7 : [ 4.97248e+01 ; 5.80123e+01 [ =         92
      8 : [ 5.80123e+01 ; 6.62997e+01 [ =         28
      9 : [ 6.62997e+01 ; 7.45872e+01 [ =         14
     10 : [ 7.45872e+01 ; 8.28746e+01 ] =         14

  Histogram of cell volumes:

    minimum value =         1.60037e-07
    maximum value =         8.92064e-01

      1 : [ 1.60037e-07 ; 8.92065e-02 [ =     473733
      2 : [ 8.92065e-02 ; 1.78413e-01 [ =       6317
      3 : [ 1.78413e-01 ; 2.67619e-01 [ =       1623
      4 : [ 2.67619e-01 ; 3.56826e-01 [ =        726
      5 : [ 3.56826e-01 ; 4.46032e-01 [ =        332
      6 : [ 4.46032e-01 ; 5.35238e-01 [ =        153
      7 : [ 5.35238e-01 ; 6.24445e-01 [ =         84
      8 : [ 6.24445e-01 ; 7.13651e-01 [ =         40
      9 : [ 7.13651e-01 ; 8.02858e-01 [ =         24
     10 : [ 8.02858e-01 ; 8.92064e-01 ] =          6

 Checking the mesh structure coherency:
    Checking the face -> cells connectivity coherency
    Coherency criteria definition
    Coherency verification on coordinates 1
    Coherency verification on coordinates 2
    Coherency verification on coordinates 3
 End of coherency check of the mesh structure.
                                                             
       ALMAX  =    0.15314E+02 (Characteristic length       )
       ALMAX is the cubic root of the domain volume.

       ALMAX is the length used to initialize the turbulence.

===============================================================

              RUNNING IN VERIFICATION MODE                   
              ============================                   
                                                             
 =========================================================== 



 GRADRC ISWEEP =  100 NORMED RESIDUAL:  0.2145+106 NORM:  0.8759E+02
 PARAMETER IVAR =    1
@
@ @@ WARNING:            NON CONVERGENCE OF GRADRC
@    ========
@
SIGFPE signal (floating point exception) intercepted!

Call stack:
   1: 0x7fcc7336a2f9 <fvm_convert_array+0x6b49>       (libfvm.so.0)
   2: 0x7fcc735f3eb5 <fvm_writer_field_helper_step_e+0xaf5> (libfvm_filters.so.0)
   3: 0x7fcc735edb0f <fvm_to_ensight_export_field+0xdef> (libfvm_filters.so.0)
   4: 0x7fcc735f1d37 <fvm_writer_export_field+0xb7>   (libfvm_filters.so.0)
   5: 0x7fcc73c9f782 <cs_post_write_var+0x2f2>        (libsaturne.so.0)
   6: 0x7fcc73ca0528 <pstev1_+0x108>                  (libsaturne.so.0)
   7: 0x7fcc73ca4308 <psteva_+0x58>                   (libsaturne.so.0)
   8: 0x7fcc73d51b2b <testel_+0x65b>                  (libsaturne.so.0)
   9: 0x7fcc73c5d3c8 <caltri_+0x1dd0>                 (libsaturne.so.0)
  10: 0x7fcc73c577fb <cs_run+0x72b>                   (libsaturne.so.0)
  11: 0x7fcc73c56fea <main+0x1da>                     (libsaturne.so.0)
  12: 0x7fcc71ef876d <__libc_start_main+0xed>         (libc.so.6)
  13: 0x4006b9     <>                               (cs_solver)
End of stack
